/*--------------------------------*- C++ -*----------------------------------*\
| =========                 |                                                 |
| \\      /  F ield         | OpenFOAM: The Open Source CFD Toolbox           |
|  \\    /   O peration     | Version:  v2106                                 |
|   \\  /    A nd           | Website:  www.openfoam.com                      |
|    \\/     M anipulation  |                                                 |
\*---------------------------------------------------------------------------*/
FoamFile
{
    version     2.0;
    format      ascii;
    arch        "LSB;label=32;scalar=64";
    class       surfaceVectorField;
    location    "constant";
    object      (S*1);
}
// * * * * * * * * * * * * * * * * * * * * * * * * * * * * * * * * * * * * * //

dimensions      [0 2 0 0 0 0 0];

oriented        oriented;

internalField   nonuniform List<vector> 
1275
(
(0.0004 0 0)
(0 0.0004 0)
(0 0 0.0004)
(0.0004 0 0)
(0 0.0004 0)
(0 0 0.0004)
(0.0004 0 0)
(0 0.0004 0)
(0 0 0.0004)
(0.0004 0 0)
(0 0.0004 0)
(0 0 0.0004)
(0 0.0004 0)
(0 0 0.0004)
(0.0004 0 0)
(0 0.0004 0)
(0 0 0.0004)
(0.0004 0 0)
(0 0.0004 0)
(0 0 0.0004)
(0.0004 0 0)
(0 0.0004 0)
(0 0 0.0004)
(0.0004 0 0)
(0 0.0004 0)
(0 0 0.0004)
(0 0.0004 0)
(0 0 0.0004)
(0.0004 0 0)
(0 0.0004 0)
(0 0 0.0004)
(0.0004 0 0)
(0 0.0004 0)
(0 0 0.0004)
(0.0004 0 0)
(0 0.0004 0)
(0 0 0.0004)
(0.0004 0 0)
(0 0.0004 0)
(0 0 0.0004)
(0 0.0004 0)
(0 0 0.0004)
(0.0004 0 0)
(0 0.0004 0)
(0 0 0.0004)
(0.0004 0 0)
(0 0.0004 0)
(0 0 0.0004)
(0.0004 0 0)
(0 0.0004 0)
(0 0 0.0004)
(0.0004 0 0)
(0 0.0004 0)
(0 0 0.0004)
(0 0.0004 0)
(0 0 0.0004)
(0.0004 0 0)
(0 0 0.0004)
(0.0004 0 0)
(0 0 0.0004)
(0.0004 0 0)
(0 0 0.0004)
(0.0004 0 0)
(0 0 0.0004)
(0 0 0.0004)
(0.0004 0 0)
(0 0.0004 0)
(0 0 0.0004)
(0.0004 0 0)
(0 0.0004 0)
(0 0 0.0004)
(0.0004 0 0)
(0 0.0004 0)
(0 0 0.0004)
(0.0004 0 0)
(0 0.0004 0)
(0 0 0.0004)
(0 0.0004 0)
(0 0 0.0004)
(0.0004 0 0)
(0 0.0004 0)
(0 0 0.0004)
(0.0004 0 0)
(0 0.0004 0)
(0 0 0.0004)
(0.0004 0 0)
(0 0.0004 0)
(0 0 0.0004)
(0.0004 0 0)
(0 0.0004 0)
(0 0 0.0004)
(0 0.0004 0)
(0 0 0.0004)
(0.0004 0 0)
(0 0.0004 0)
(0 0 0.0004)
(0.0004 0 0)
(0 0.0004 0)
(0 0 0.0004)
(0.0004 0 0)
(0 0.0004 0)
(0 0 0.0004)
(0.0004 0 0)
(0 0.0004 0)
(0 0 0.0004)
(0 0.0004 0)
(0 0 0.0004)
(0.0004 0 0)
(0 0.0004 0)
(0 0 0.0004)
(0.0004 0 0)
(0 0.0004 0)
(0 0 0.0004)
(0.0004 0 0)
(0 0.0004 0)
(0 0 0.0004)
(0.0004 0 0)
(0 0.0004 0)
(0 0 0.0004)
(0 0.0004 0)
(0 0 0.0004)
(0.0004 0 0)
(0 0 0.0004)
(0.0004 0 0)
(0 0 0.0004)
(0.0004 0 0)
(0 0 0.0004)
(0.0004 0 0)
(0 0 0.0004)
(0 0 0.0004)
(0.0004 0 0)
(0 0.0004 0)
(0 0 0.0004)
(0.0004 0 0)
(0 0.0004 0)
(0 0 0.0004)
(0.0004 0 0)
(0 0.0004 0)
(0 0 0.0004)
(0.0004 0 0)
(0 0.0004 0)
(0 0 0.0004)
(0 0.0004 0)
(0 0 0.0004)
(0.0004 0 0)
(0 0.0004 0)
(0 0 0.0004)
(0.0004 0 0)
(0 0.0004 0)
(0 0 0.0004)
(0.0004 0 0)
(0 0.0004 0)
(0 0 0.0004)
(0.0004 0 0)
(0 0.0004 0)
(0 0 0.0004)
(0 0.0004 0)
(0 0 0.0004)
(0.0004 0 0)
(0 0.0004 0)
(0 0 0.0004)
(0.0004 0 0)
(0 0.0004 0)
(0 0 0.0004)
(0.0004 0 0)
(0 0.0004 0)
(0 0 0.0004)
(0.0004 0 0)
(0 0.0004 0)
(0 0 0.0004)
(0 0.0004 0)
(0 0 0.0004)
(0.0004 0 0)
(0 0.0004 0)
(0 0 0.0004)
(0.0004 0 0)
(0 0.0004 0)
(0 0 0.0004)
(0.0004 0 0)
(0 0.0004 0)
(0 0 0.0004)
(0.0004 0 0)
(0 0.0004 0)
(0 0 0.0004)
(0 0.0004 0)
(0 0 0.0004)
(0.0004 0 0)
(0 0 0.0004)
(0.0004 0 0)
(0 0 0.0004)
(0.0004 0 0)
(0 0 0.0004)
(0.0004 0 0)
(0 0 0.0004)
(0 0 0.0004)
(0.0004 0 0)
(0 0.0004 0)
(0 0 0.0004)
(0.0004 0 0)
(0 0.0004 0)
(0 0 0.0004)
(0.0004 0 0)
(0 0.0004 0)
(0 0 0.0004)
(0.0004 0 0)
(0 0.0004 0)
(0 0 0.0004)
(0 0.0004 0)
(0 0 0.0004)
(0.0004 0 0)
(0 0.0004 0)
(0 0 0.0004)
(0.0004 0 0)
(0 0.0004 0)
(0 0 0.0004)
(0.0004 0 0)
(0 0.0004 0)
(0 0 0.0004)
(0.0004 0 0)
(0 0.0004 0)
(0 0 0.0004)
(0 0.0004 0)
(0 0 0.0004)
(0.0004 0 0)
(0 0.0004 0)
(0 0 0.0004)
(0.0004 0 0)
(0 0.0004 0)
(0 0 0.0004)
(0.0004 0 0)
(0 0.0004 0)
(0 0 0.0004)
(0.0004 0 0)
(0 0.0004 0)
(0 0 0.0004)
(0 0.0004 0)
(0 0 0.0004)
(0.0004 0 0)
(0 0.0004 0)
(0 0 0.0004)
(0.0004 0 0)
(0 0.0004 0)
(0 0 0.0004)
(0.0004 0 0)
(0 0.0004 0)
(0 0 0.0004)
(0.0004 0 0)
(0 0.0004 0)
(0 0 0.0004)
(0 0.0004 0)
(0 0 0.0004)
(0.0004 0 0)
(0 0 0.0004)
(0.0004 0 0)
(0 0 0.0004)
(0.0004 0 0)
(0 0 0.0004)
(0.0004 0 0)
(0 0 0.0004)
(0 0 0.0004)
(0.0004 0 0)
(0 0.0004 0)
(0 0 0.0004)
(0.0004 0 0)
(0 0.0004 0)
(0 0 0.0004)
(0.0004 0 0)
(0 0.0004 0)
(0 0 0.0004)
(0.0004 0 0)
(0 0.0004 0)
(0 0 0.0004)
(0 0.0004 0)
(0 0 0.0004)
(0.0004 0 0)
(0 0.0004 0)
(0 0 0.0004)
(0.0004 0 0)
(0 0.0004 0)
(0 0 0.0004)
(0.0004 0 0)
(0 0.0004 0)
(0 0 0.0004)
(0.0004 0 0)
(0 0.0004 0)
(0 0 0.0004)
(0 0.0004 0)
(0 0 0.0004)
(0.0004 0 0)
(0 0.0004 0)
(0 0 0.0004)
(0.0004 0 0)
(0 0.0004 0)
(0 0 0.0004)
(0.0004 0 0)
(0 0.0004 0)
(0 0 0.0004)
(0.0004 0 0)
(0 0.0004 0)
(0 0 0.0004)
(0 0.0004 0)
(0 0 0.0004)
(0.0004 0 0)
(0 0.0004 0)
(0 0 0.0004)
(0.0004 0 0)
(0 0.0004 0)
(0 0 0.0004)
(0.0004 0 0)
(0 0.0004 0)
(0 0 0.0004)
(0.0004 0 0)
(0 0.0004 0)
(0 0 0.0004)
(0 0.0004 0)
(0 0 0.0004)
(0.0004 0 0)
(0 0 0.0004)
(0.0004 0 0)
(0 0 0.0004)
(0.0004 0 0)
(0 0 0.0004)
(0.0004 0 0)
(0 0 0.0004)
(0 0 0.0004)
(0.0004 0 0)
(0 0.0004 0)
(0 0 0.0004)
(0.0004 0 0)
(0 0.0004 0)
(0 0 0.0004)
(0.0004 0 0)
(0 0.0004 0)
(0 0 0.0004)
(0.0004 0 0)
(0 0.0004 0)
(0 0 0.0004)
(0 0.0004 0)
(0 0 0.0004)
(0.0004 0 0)
(0 0.0004 0)
(0 0 0.0004)
(0.0004 0 0)
(0 0.0004 0)
(0 0 0.0004)
(0.0004 0 0)
(0 0.0004 0)
(0 0 0.0004)
(0.0004 0 0)
(0 0.0004 0)
(0 0 0.0004)
(0 0.0004 0)
(0 0 0.0004)
(0.0004 0 0)
(0 0.0004 0)
(0 0 0.0004)
(0.0004 0 0)
(0 0.0004 0)
(0 0 0.0004)
(0.0004 0 0)
(0 0.0004 0)
(0 0 0.0004)
(0.0004 0 0)
(0 0.0004 0)
(0 0 0.0004)
(0 0.0004 0)
(0 0 0.0004)
(0.0004 0 0)
(0 0.0004 0)
(0 0 0.0004)
(0.0004 0 0)
(0 0.0004 0)
(0 0 0.0004)
(0.0004 0 0)
(0 0.0004 0)
(0 0 0.0004)
(0.0004 0 0)
(0 0.0004 0)
(0 0 0.0004)
(0 0.0004 0)
(0 0 0.0004)
(0.0004 0 0)
(0 0 0.0004)
(0.0004 0 0)
(0 0 0.0004)
(0.0004 0 0)
(0 0 0.0004)
(0.0004 0 0)
(0 0 0.0004)
(0 0 0.0004)
(0.0004 0 0)
(0 0.0004 0)
(0 0 0.0004)
(0.0004 0 0)
(0 0.0004 0)
(0 0 0.0004)
(0.0004 0 0)
(0 0.0004 0)
(0 0 0.0004)
(0.0004 0 0)
(0 0.0004 0)
(0 0 0.0004)
(0 0.0004 0)
(0 0 0.0004)
(0.0004 0 0)
(0 0.0004 0)
(0 0 0.0004)
(0.0004 0 0)
(0 0.0004 0)
(0 0 0.0004)
(0.0004 0 0)
(0 0.0004 0)
(0 0 0.0004)
(0.0004 0 0)
(0 0.0004 0)
(0 0 0.0004)
(0 0.0004 0)
(0 0 0.0004)
(0.0004 0 0)
(0 0.0004 0)
(0 0 0.0004)
(0.0004 0 0)
(0 0.0004 0)
(0 0 0.0004)
(0.0004 0 0)
(0 0.0004 0)
(0 0 0.0004)
(0.0004 0 0)
(0 0.0004 0)
(0 0 0.0004)
(0 0.0004 0)
(0 0 0.0004)
(0.0004 0 0)
(0 0.0004 0)
(0 0 0.0004)
(0.0004 0 0)
(0 0.0004 0)
(0 0 0.0004)
(0.0004 0 0)
(0 0.0004 0)
(0 0 0.0004)
(0.0004 0 0)
(0 0.0004 0)
(0 0 0.0004)
(0 0.0004 0)
(0 0 0.0004)
(0.0004 0 0)
(0 0 0.0004)
(0.0004 0 0)
(0 0 0.0004)
(0.0004 0 0)
(0 0 0.0004)
(0.0004 0 0)
(0 0 0.0004)
(0 0 0.0004)
(0.0004 0 0)
(0 0.0004 0)
(0 0 0.0004)
(0.0004 0 0)
(0 0.0004 0)
(0 0 0.0004)
(0.0004 0 0)
(0 0.0004 0)
(0 0 0.0004)
(0.0004 0 0)
(0 0.0004 0)
(0 0 0.0004)
(0 0.0004 0)
(0 0 0.0004)
(0.0004 0 0)
(0 0.0004 0)
(0 0 0.0004)
(0.0004 0 0)
(0 0.0004 0)
(0 0 0.0004)
(0.0004 0 0)
(0 0.0004 0)
(0 0 0.0004)
(0.0004 0 0)
(0 0.0004 0)
(0 0 0.0004)
(0 0.0004 0)
(0 0 0.0004)
(0.0004 0 0)
(0 0.0004 0)
(0 0 0.0004)
(0.0004 0 0)
(0 0.0004 0)
(0 0 0.0004)
(0.0004 0 0)
(0 0.0004 0)
(0 0 0.0004)
(0.0004 0 0)
(0 0.0004 0)
(0 0 0.0004)
(0 0.0004 0)
(0 0 0.0004)
(0.0004 0 0)
(0 0.0004 0)
(0 0 0.0004)
(0.0004 0 0)
(0 0.0004 0)
(0 0 0.0004)
(0.0004 0 0)
(0 0.0004 0)
(0 0 0.0004)
(0.0004 0 0)
(0 0.0004 0)
(0 0 0.0004)
(0 0.0004 0)
(0 0 0.0004)
(0.0004 0 0)
(0 0 0.0004)
(0.0004 0 0)
(0 0 0.0004)
(0.0004 0 0)
(0 0 0.0004)
(0.0004 0 0)
(0 0 0.0004)
(0 0 0.0004)
(0.0004 0 0)
(0 0.0004 0)
(0 0 0.0004)
(0.0004 0 0)
(0 0.0004 0)
(0 0 0.0004)
(0.0004 0 0)
(0 0.0004 0)
(0 0 0.0004)
(0.0004 0 0)
(0 0.0004 0)
(0 0 0.0004)
(0 0.0004 0)
(0 0 0.0004)
(0.0004 0 0)
(0 0.0004 0)
(0 0 0.0004)
(0.0004 0 0)
(0 0.0004 0)
(0 0 0.0004)
(0.0004 0 0)
(0 0.0004 0)
(0 0 0.0004)
(0.0004 0 0)
(0 0.0004 0)
(0 0 0.0004)
(0 0.0004 0)
(0 0 0.0004)
(0.0004 0 0)
(0 0.0004 0)
(0 0 0.0004)
(0.0004 0 0)
(0 0.0004 0)
(0 0 0.0004)
(0.0004 0 0)
(0 0.0004 0)
(0 0 0.0004)
(0.0004 0 0)
(0 0.0004 0)
(0 0 0.0004)
(0 0.0004 0)
(0 0 0.0004)
(0.0004 0 0)
(0 0.0004 0)
(0 0 0.0004)
(0.0004 0 0)
(0 0.0004 0)
(0 0 0.0004)
(0.0004 0 0)
(0 0.0004 0)
(0 0 0.0004)
(0.0004 0 0)
(0 0.0004 0)
(0 0 0.0004)
(0 0.0004 0)
(0 0 0.0004)
(0.0004 0 0)
(0 0 0.0004)
(0.0004 0 0)
(0 0 0.0004)
(0.0004 0 0)
(0 0 0.0004)
(0.0004 0 0)
(0 0 0.0004)
(0 0 0.0004)
(0.0004 0 0)
(0 0.0004 0)
(0 0 0.0004)
(0.0004 0 0)
(0 0.0004 0)
(0 0 0.0004)
(0.0004 0 0)
(0 0.0004 0)
(0 0 0.0004)
(0.0004 0 0)
(0 0.0004 0)
(-4.62593e-20 3.00927e-36 0.0004)
(0 0.0004 0)
(4.62593e-20 0 0.0004)
(0.0004 0 0)
(0 0.0004 0)
(0 0 0.0004)
(0.0004 0 0)
(0 0.0004 0)
(0 0 0.0004)
(0.0004 0 0)
(0 0.0004 0)
(0 0 0.0004)
(0.0004 0 0)
(0 0.0004 0)
(-4.62593e-20 3.00927e-36 0.0004)
(0 0.0004 0)
(4.62593e-20 0 0.0004)
(0.0004 0 0)
(0 0.0004 0)
(0 0 0.0004)
(0.0004 0 0)
(0 0.0004 0)
(0 0 0.0004)
(0.0004 0 0)
(0 0.0004 0)
(0 0 0.0004)
(0.0004 0 0)
(0 0.0004 0)
(-4.62593e-20 3.00927e-36 0.0004)
(0 0.0004 0)
(4.62593e-20 0 0.0004)
(0.0004 0 0)
(0 0.0004 0)
(0 0 0.0004)
(0.0004 0 0)
(0 0.0004 0)
(0 0 0.0004)
(0.0004 0 0)
(0 0.0004 0)
(0 0 0.0004)
(0.0004 0 0)
(0 0.0004 0)
(-4.62593e-20 3.00927e-36 0.0004)
(0 0.0004 0)
(4.62593e-20 0 0.0004)
(0.0004 0 0)
(0 0 0.0004)
(0.0004 0 0)
(0 0 0.0004)
(0.0004 0 0)
(0 0 0.0004)
(0.0004 0 0)
(-4.62593e-20 3.00927e-36 0.0004)
(4.62593e-20 0 0.0004)
(0.0004 0 0)
(0 0.0004 0)
(0 0 0.0004)
(0.0004 0 0)
(0 0.0004 0)
(0 0 0.0004)
(0.0004 0 0)
(0 0.0004 0)
(0 0 0.0004)
(0.0004 0 0)
(0 0.0004 0)
(0 0 0.0004)
(0 0.0004 0)
(0 0 0.0004)
(0.0004 0 0)
(0 0.0004 0)
(0 0 0.0004)
(0.0004 0 0)
(0 0.0004 0)
(0 0 0.0004)
(0.0004 0 0)
(0 0.0004 0)
(0 0 0.0004)
(0.0004 0 0)
(0 0.0004 0)
(0 0 0.0004)
(0 0.0004 0)
(0 0 0.0004)
(0.0004 0 0)
(0 0.0004 0)
(0 0 0.0004)
(0.0004 0 0)
(0 0.0004 0)
(0 0 0.0004)
(0.0004 0 0)
(0 0.0004 0)
(0 0 0.0004)
(0.0004 0 0)
(0 0.0004 0)
(0 0 0.0004)
(0 0.0004 0)
(0 0 0.0004)
(0.0004 0 0)
(0 0.0004 0)
(0 0 0.0004)
(0.0004 0 0)
(0 0.0004 0)
(0 0 0.0004)
(0.0004 0 0)
(0 0.0004 0)
(0 0 0.0004)
(0.0004 0 0)
(0 0.0004 0)
(0 0 0.0004)
(0 0.0004 0)
(0 0 0.0004)
(0.0004 0 0)
(0 0 0.0004)
(0.0004 0 0)
(0 0 0.0004)
(0.0004 0 0)
(0 0 0.0004)
(0.0004 0 0)
(0 0 0.0004)
(0 0 0.0004)
(0.0004 0 0)
(0 0.0004 0)
(0 0 0.0004)
(0.0004 0 0)
(0 0.0004 0)
(0 0 0.0004)
(0.0004 0 0)
(0 0.0004 0)
(0 0 0.0004)
(0.0004 0 0)
(0 0.0004 0)
(0 0 0.0004)
(0 0.0004 0)
(0 0 0.0004)
(0.0004 0 0)
(0 0.0004 0)
(0 0 0.0004)
(0.0004 0 0)
(0 0.0004 0)
(0 0 0.0004)
(0.0004 0 0)
(0 0.0004 0)
(0 0 0.0004)
(0.0004 0 0)
(0 0.0004 0)
(0 0 0.0004)
(0 0.0004 0)
(0 0 0.0004)
(0.0004 0 0)
(0 0.0004 0)
(0 0 0.0004)
(0.0004 0 0)
(0 0.0004 0)
(0 0 0.0004)
(0.0004 0 0)
(0 0.0004 0)
(0 0 0.0004)
(0.0004 0 0)
(0 0.0004 0)
(0 0 0.0004)
(0 0.0004 0)
(0 0 0.0004)
(0.0004 0 0)
(0 0.0004 0)
(0 0 0.0004)
(0.0004 0 0)
(0 0.0004 0)
(0 0 0.0004)
(0.0004 0 0)
(0 0.0004 0)
(0 0 0.0004)
(0.0004 0 0)
(0 0.0004 0)
(0 0 0.0004)
(0 0.0004 0)
(0 0 0.0004)
(0.0004 0 0)
(0 0 0.0004)
(0.0004 0 0)
(0 0 0.0004)
(0.0004 0 0)
(0 0 0.0004)
(0.0004 0 0)
(0 0 0.0004)
(0 0 0.0004)
(0.0004 0 0)
(0 0.0004 0)
(0 0 0.0004)
(0.0004 0 0)
(0 0.0004 0)
(0 0 0.0004)
(0.0004 0 0)
(0 0.0004 0)
(0 0 0.0004)
(0.0004 0 0)
(0 0.0004 0)
(0 0 0.0004)
(0 0.0004 0)
(0 0 0.0004)
(0.0004 0 0)
(0 0.0004 0)
(0 0 0.0004)
(0.0004 0 0)
(0 0.0004 0)
(0 0 0.0004)
(0.0004 0 0)
(0 0.0004 0)
(0 0 0.0004)
(0.0004 0 0)
(0 0.0004 0)
(0 0 0.0004)
(0 0.0004 0)
(0 0 0.0004)
(0.0004 0 0)
(0 0.0004 0)
(0 0 0.0004)
(0.0004 0 0)
(0 0.0004 0)
(0 0 0.0004)
(0.0004 0 0)
(0 0.0004 0)
(0 0 0.0004)
(0.0004 0 0)
(0 0.0004 0)
(0 0 0.0004)
(0 0.0004 0)
(0 0 0.0004)
(0.0004 0 0)
(0 0.0004 0)
(0 0 0.0004)
(0.0004 0 0)
(0 0.0004 0)
(0 0 0.0004)
(0.0004 0 0)
(0 0.0004 0)
(0 0 0.0004)
(0.0004 0 0)
(0 0.0004 0)
(0 0 0.0004)
(0 0.0004 0)
(0 0 0.0004)
(0.0004 0 0)
(0 0 0.0004)
(0.0004 0 0)
(0 0 0.0004)
(0.0004 0 0)
(0 0 0.0004)
(0.0004 0 0)
(0 0 0.0004)
(0 0 0.0004)
(0.0004 0 0)
(0 0.0004 0)
(0 0 0.0004)
(0.0004 0 0)
(0 0.0004 0)
(0 0 0.0004)
(0.0004 0 0)
(0 0.0004 0)
(0 0 0.0004)
(0.0004 0 0)
(0 0.0004 0)
(0 0 0.0004)
(0 0.0004 0)
(0 0 0.0004)
(0.0004 0 0)
(0 0.0004 0)
(0 0 0.0004)
(0.0004 0 0)
(0 0.0004 0)
(0 0 0.0004)
(0.0004 0 0)
(0 0.0004 0)
(0 0 0.0004)
(0.0004 0 0)
(0 0.0004 0)
(0 0 0.0004)
(0 0.0004 0)
(0 0 0.0004)
(0.0004 0 0)
(0 0.0004 0)
(0 0 0.0004)
(0.0004 0 0)
(0 0.0004 0)
(0 0 0.0004)
(0.0004 0 0)
(0 0.0004 0)
(0 0 0.0004)
(0.0004 0 0)
(0 0.0004 0)
(0 0 0.0004)
(0 0.0004 0)
(0 0 0.0004)
(0.0004 0 0)
(0 0.0004 0)
(0 0 0.0004)
(0.0004 0 0)
(0 0.0004 0)
(0 0 0.0004)
(0.0004 0 0)
(0 0.0004 0)
(0 0 0.0004)
(0.0004 0 0)
(0 0.0004 0)
(0 0 0.0004)
(0 0.0004 0)
(0 0 0.0004)
(0.0004 0 0)
(0 0 0.0004)
(0.0004 0 0)
(0 0 0.0004)
(0.0004 0 0)
(0 0 0.0004)
(0.0004 0 0)
(0 0 0.0004)
(0 0 0.0004)
(0.0004 0 0)
(0 0.0004 0)
(0 0 0.0004)
(0.0004 0 0)
(0 0.0004 0)
(0 0 0.0004)
(0.0004 0 0)
(0 0.0004 0)
(0 0 0.0004)
(0.0004 0 0)
(0 0.0004 0)
(0 0 0.0004)
(0 0.0004 0)
(0 0 0.0004)
(0.0004 0 0)
(0 0.0004 0)
(0 0 0.0004)
(0.0004 0 0)
(0 0.0004 0)
(0 0 0.0004)
(0.0004 0 0)
(0 0.0004 0)
(0 0 0.0004)
(0.0004 0 0)
(0 0.0004 0)
(0 0 0.0004)
(0 0.0004 0)
(0 0 0.0004)
(0.0004 0 0)
(0 0.0004 0)
(0 0 0.0004)
(0.0004 0 0)
(0 0.0004 0)
(0 0 0.0004)
(0.0004 0 0)
(0 0.0004 0)
(0 0 0.0004)
(0.0004 0 0)
(0 0.0004 0)
(0 0 0.0004)
(0 0.0004 0)
(0 0 0.0004)
(0.0004 0 0)
(0 0.0004 0)
(0 0 0.0004)
(0.0004 0 0)
(0 0.0004 0)
(0 0 0.0004)
(0.0004 0 0)
(0 0.0004 0)
(0 0 0.0004)
(0.0004 0 0)
(0 0.0004 0)
(0 0 0.0004)
(0 0.0004 0)
(0 0 0.0004)
(0.0004 0 0)
(0 0 0.0004)
(0.0004 0 0)
(0 0 0.0004)
(0.0004 0 0)
(0 0 0.0004)
(0.0004 0 0)
(0 0 0.0004)
(0 0 0.0004)
(0.0004 0 0)
(0 0.0004 0)
(0 0 0.0004)
(0.0004 0 0)
(0 0.0004 0)
(0 0 0.0004)
(0.0004 0 0)
(0 0.0004 0)
(0 0 0.0004)
(0.0004 0 0)
(0 0.0004 0)
(0 0 0.0004)
(0 0.0004 0)
(0 0 0.0004)
(0.0004 0 0)
(0 0.0004 0)
(0 0 0.0004)
(0.0004 0 0)
(0 0.0004 0)
(0 0 0.0004)
(0.0004 0 0)
(0 0.0004 0)
(0 0 0.0004)
(0.0004 0 0)
(0 0.0004 0)
(0 0 0.0004)
(0 0.0004 0)
(0 0 0.0004)
(0.0004 0 0)
(0 0.0004 0)
(0 0 0.0004)
(0.0004 0 0)
(0 0.0004 0)
(0 0 0.0004)
(0.0004 0 0)
(0 0.0004 0)
(0 0 0.0004)
(0.0004 0 0)
(0 0.0004 0)
(0 0 0.0004)
(0 0.0004 0)
(0 0 0.0004)
(0.0004 0 0)
(0 0.0004 0)
(0 0 0.0004)
(0.0004 0 0)
(0 0.0004 0)
(0 0 0.0004)
(0.0004 0 0)
(0 0.0004 0)
(0 0 0.0004)
(0.0004 0 0)
(0 0.0004 0)
(0 0 0.0004)
(0 0.0004 0)
(0 0 0.0004)
(0.0004 0 0)
(0 0 0.0004)
(0.0004 0 0)
(0 0 0.0004)
(0.0004 0 0)
(0 0 0.0004)
(0.0004 0 0)
(0 0 0.0004)
(0 0 0.0004)
(0.0004 0 0)
(0 0.0004 0)
(0 0 0.0004)
(0.0004 0 0)
(0 0.0004 0)
(0 0 0.0004)
(0.0004 0 0)
(0 0.0004 0)
(0 0 0.0004)
(0.0004 0 0)
(0 0.0004 0)
(0 0 0.0004)
(0 0.0004 0)
(0 0 0.0004)
(0.0004 0 0)
(0 0.0004 0)
(0 0 0.0004)
(0.0004 0 0)
(0 0.0004 0)
(0 0 0.0004)
(0.0004 0 0)
(0 0.0004 0)
(0 0 0.0004)
(0.0004 0 0)
(0 0.0004 0)
(0 0 0.0004)
(0 0.0004 0)
(0 0 0.0004)
(0.0004 0 0)
(0 0.0004 0)
(0 0 0.0004)
(0.0004 0 0)
(0 0.0004 0)
(0 0 0.0004)
(0.0004 0 0)
(0 0.0004 0)
(0 0 0.0004)
(0.0004 0 0)
(0 0.0004 0)
(0 0 0.0004)
(0 0.0004 0)
(0 0 0.0004)
(0.0004 0 0)
(0 0.0004 0)
(0 0 0.0004)
(0.0004 0 0)
(0 0.0004 0)
(0 0 0.0004)
(0.0004 0 0)
(0 0.0004 0)
(0 0 0.0004)
(0.0004 0 0)
(0 0.0004 0)
(0 0 0.0004)
(0 0.0004 0)
(0 0 0.0004)
(0.0004 0 0)
(0 0 0.0004)
(0.0004 0 0)
(0 0 0.0004)
(0.0004 0 0)
(0 0 0.0004)
(0.0004 0 0)
(0 0 0.0004)
(0 0 0.0004)
(0.0004 0 0)
(0 0.0004 0)
(0 0 0.0004)
(0.0004 0 0)
(0 0.0004 0)
(0 0 0.0004)
(0.0004 0 0)
(0 0.0004 0)
(0 0 0.0004)
(0.0004 0 0)
(0 0.0004 0)
(0 0 0.0004)
(0 0.0004 0)
(0 0 0.0004)
(0.0004 0 0)
(0 0.0004 0)
(0 0 0.0004)
(0.0004 0 0)
(0 0.0004 0)
(0 0 0.0004)
(0.0004 0 0)
(0 0.0004 0)
(0 0 0.0004)
(0.0004 0 0)
(0 0.0004 0)
(0 0 0.0004)
(0 0.0004 0)
(0 0 0.0004)
(0.0004 0 0)
(0 0.0004 0)
(0 0 0.0004)
(0.0004 0 0)
(0 0.0004 0)
(0 0 0.0004)
(0.0004 0 0)
(0 0.0004 0)
(0 0 0.0004)
(0.0004 0 0)
(0 0.0004 0)
(0 0 0.0004)
(0 0.0004 0)
(0 0 0.0004)
(0.0004 0 0)
(0 0.0004 0)
(0 0 0.0004)
(0.0004 0 0)
(0 0.0004 0)
(0 0 0.0004)
(0.0004 0 0)
(0 0.0004 0)
(0 0 0.0004)
(0.0004 0 0)
(0 0.0004 0)
(0 0 0.0004)
(0 0.0004 0)
(0 0 0.0004)
(0.0004 0 0)
(0 0 0.0004)
(0.0004 0 0)
(0 0 0.0004)
(0.0004 0 0)
(0 0 0.0004)
(0.0004 0 0)
(0 0 0.0004)
(0 0 0.0004)
(0.0004 0 0)
(0 0.0004 0)
(0 0 0.0004)
(0.0004 0 0)
(0 0.0004 0)
(0 0 0.0004)
(0.0004 0 0)
(0 0.0004 0)
(0 0 0.0004)
(0.0004 0 0)
(0 0.0004 0)
(0 0 0.0004)
(0 0.0004 0)
(0 0 0.0004)
(0.0004 0 0)
(0 0.0004 0)
(0 0 0.0004)
(0.0004 0 0)
(0 0.0004 0)
(0 0 0.0004)
(0.0004 0 0)
(0 0.0004 0)
(0 0 0.0004)
(0.0004 0 0)
(0 0.0004 0)
(0 0 0.0004)
(0 0.0004 0)
(0 0 0.0004)
(0.0004 0 0)
(0 0.0004 0)
(0 0 0.0004)
(0.0004 0 0)
(0 0.0004 0)
(0 0 0.0004)
(0.0004 0 0)
(0 0.0004 0)
(0 0 0.0004)
(0.0004 0 0)
(0 0.0004 0)
(0 0 0.0004)
(0 0.0004 0)
(0 0 0.0004)
(0.0004 0 0)
(0 0.0004 0)
(0 0 0.0004)
(0.0004 0 0)
(0 0.0004 0)
(0 0 0.0004)
(0.0004 0 0)
(0 0.0004 0)
(0 0 0.0004)
(0.0004 0 0)
(0 0.0004 0)
(0 0 0.0004)
(0 0.0004 0)
(0 0 0.0004)
(0.0004 0 0)
(0 0 0.0004)
(0.0004 0 0)
(0 0 0.0004)
(0.0004 0 0)
(0 0 0.0004)
(0.0004 0 0)
(0 0 0.0004)
(0 0 0.0004)
(0.0004 0 0)
(0 0.0004 0)
(0.0004 0 0)
(0 0.0004 0)
(0.0004 0 0)
(0 0.0004 0)
(0.0004 0 0)
(0 0.0004 0)
(0 0.0004 0)
(0.0004 0 0)
(0 0.0004 0)
(0.0004 0 0)
(0 0.0004 0)
(0.0004 0 0)
(0 0.0004 0)
(0.0004 0 0)
(0 0.0004 0)
(0 0.0004 0)
(0.0004 0 0)
(0 0.0004 0)
(0.0004 0 0)
(0 0.0004 0)
(0.0004 0 0)
(0 0.0004 0)
(0.0004 0 0)
(0 0.0004 0)
(0 0.0004 0)
(0.0004 0 0)
(0 0.0004 0)
(0.0004 0 0)
(0 0.0004 0)
(0.0004 0 0)
(0 0.0004 0)
(0.0004 0 0)
(0 0.0004 0)
(0 0.0004 0)
(0.0004 0 0)
(0.0004 0 0)
(0.0004 0 0)
(0.0004 0 0)
)
;

boundaryField
{
    wall_minX
    {
        type            calculated;
        value           nonuniform List<vector> 
100
(
(-0.0004 0 0)
(-0.0004 0 0)
(-0.0004 0 0)
(-0.0004 0 0)
(-0.0004 0 0)
(-0.0004 0 0)
(-0.0004 0 0)
(-0.0004 0 0)
(-0.0004 0 0)
(-0.0004 0 0)
(-0.0004 0 0)
(-0.0004 0 0)
(-0.0004 0 0)
(-0.0004 0 0)
(-0.0004 0 0)
(-0.0004 0 0)
(-0.0004 0 0)
(-0.0004 0 0)
(-0.0004 0 0)
(-0.0004 0 0)
(-0.0004 0 0)
(-0.0004 0 0)
(-0.0004 0 0)
(-0.0004 0 0)
(-0.0004 0 0)
(-0.0004 0 0)
(-0.0004 0 0)
(-0.0004 0 0)
(-0.0004 0 0)
(-0.0004 0 0)
(-0.0004 0 0)
(-0.0004 0 0)
(-0.0004 0 0)
(-0.0004 0 0)
(-0.0004 0 0)
(-0.0004 0 0)
(-0.0004 0 0)
(-0.0004 0 0)
(-0.0004 0 0)
(-0.0004 0 0)
(-0.0004 0 0)
(-0.0004 0 0)
(-0.0004 0 0)
(-0.0004 0 0)
(-0.0004 0 0)
(-0.0004 0 0)
(-0.0004 0 0)
(-0.0004 0 0)
(-0.0004 0 0)
(-0.0004 0 0)
(-0.0004 0 0)
(-0.0004 0 0)
(-0.0004 0 0)
(-0.0004 0 0)
(-0.0004 0 0)
(-0.0004 0 0)
(-0.0004 0 0)
(-0.0004 0 0)
(-0.0004 0 0)
(-0.0004 0 0)
(-0.0004 0 0)
(-0.0004 0 0)
(-0.0004 0 0)
(-0.0004 0 0)
(-0.0004 0 0)
(-0.0004 0 0)
(-0.0004 0 0)
(-0.0004 0 0)
(-0.0004 0 0)
(-0.0004 0 0)
(-0.0004 0 0)
(-0.0004 0 0)
(-0.0004 0 0)
(-0.0004 0 0)
(-0.0004 0 0)
(-0.0004 0 0)
(-0.0004 0 0)
(-0.0004 0 0)
(-0.0004 0 0)
(-0.0004 0 0)
(-0.0004 0 0)
(-0.0004 0 0)
(-0.0004 0 0)
(-0.0004 0 0)
(-0.0004 0 0)
(-0.0004 0 0)
(-0.0004 0 0)
(-0.0004 0 0)
(-0.0004 0 0)
(-0.0004 0 0)
(-0.0004 0 0)
(-0.0004 0 0)
(-0.0004 0 0)
(-0.0004 0 0)
(-0.0004 0 0)
(-0.0004 0 0)
(-0.0004 0 0)
(-0.0004 0 0)
(-0.0004 0 0)
(-0.0004 0 0)
)
;
    }
    wall_maxX
    {
        type            calculated;
        value           nonuniform List<vector> 
100
(
(0.0004 0 0)
(0.0004 0 0)
(0.0004 0 0)
(0.0004 0 0)
(0.0004 0 0)
(0.0004 0 0)
(0.0004 0 0)
(0.0004 0 0)
(0.0004 0 0)
(0.0004 0 0)
(0.0004 0 0)
(0.0004 0 0)
(0.0004 0 0)
(0.0004 0 0)
(0.0004 0 0)
(0.0004 0 0)
(0.0004 0 0)
(0.0004 0 0)
(0.0004 0 0)
(0.0004 0 0)
(0.0004 0 0)
(0.0004 0 0)
(0.0004 0 0)
(0.0004 0 0)
(0.0004 0 0)
(0.0004 0 0)
(0.0004 0 0)
(0.0004 0 0)
(0.0004 0 0)
(0.0004 0 0)
(0.0004 0 0)
(0.0004 0 0)
(0.0004 0 0)
(0.0004 0 0)
(0.0004 0 0)
(0.0004 0 0)
(0.0004 0 0)
(0.0004 0 0)
(0.0004 0 0)
(0.0004 0 0)
(0.0004 0 0)
(0.0004 0 0)
(0.0004 0 0)
(0.0004 0 0)
(0.0004 0 0)
(0.0004 0 0)
(0.0004 0 0)
(0.0004 0 0)
(0.0004 0 0)
(0.0004 0 0)
(0.0004 0 0)
(0.0004 0 0)
(0.0004 0 0)
(0.0004 0 0)
(0.0004 0 0)
(0.0004 0 0)
(0.0004 0 0)
(0.0004 0 0)
(0.0004 0 0)
(0.0004 0 0)
(0.0004 0 0)
(0.0004 0 0)
(0.0004 0 0)
(0.0004 0 0)
(0.0004 0 0)
(0.0004 0 0)
(0.0004 0 0)
(0.0004 0 0)
(0.0004 0 0)
(0.0004 0 0)
(0.0004 0 0)
(0.0004 0 0)
(0.0004 0 0)
(0.0004 0 0)
(0.0004 0 0)
(0.0004 0 0)
(0.0004 0 0)
(0.0004 0 0)
(0.0004 0 0)
(0.0004 0 0)
(0.0004 0 0)
(0.0004 0 0)
(0.0004 0 0)
(0.0004 0 0)
(0.0004 0 0)
(0.0004 0 0)
(0.0004 0 0)
(0.0004 0 0)
(0.0004 0 0)
(0.0004 0 0)
(0.0004 0 0)
(0.0004 0 0)
(0.0004 0 0)
(0.0004 0 0)
(0.0004 0 0)
(0.0004 0 0)
(0.0004 0 0)
(0.0004 0 0)
(0.0004 0 0)
(0.0004 0 0)
)
;
    }
    wall_minY
    {
        type            calculated;
        value           nonuniform List<vector> 
100
(
(0 -0.0004 0)
(0 -0.0004 0)
(0 -0.0004 0)
(0 -0.0004 0)
(0 -0.0004 0)
(0 -0.0004 0)
(0 -0.0004 0)
(0 -0.0004 0)
(0 -0.0004 0)
(0 -0.0004 0)
(0 -0.0004 0)
(0 -0.0004 0)
(0 -0.0004 0)
(0 -0.0004 0)
(0 -0.0004 0)
(0 -0.0004 0)
(0 -0.0004 0)
(0 -0.0004 0)
(0 -0.0004 0)
(0 -0.0004 0)
(0 -0.0004 0)
(0 -0.0004 0)
(0 -0.0004 0)
(0 -0.0004 0)
(0 -0.0004 0)
(0 -0.0004 0)
(0 -0.0004 0)
(0 -0.0004 0)
(0 -0.0004 0)
(0 -0.0004 0)
(0 -0.0004 0)
(0 -0.0004 0)
(0 -0.0004 0)
(0 -0.0004 0)
(0 -0.0004 0)
(0 -0.0004 0)
(0 -0.0004 0)
(0 -0.0004 0)
(0 -0.0004 0)
(0 -0.0004 0)
(0 -0.0004 0)
(0 -0.0004 0)
(0 -0.0004 0)
(0 -0.0004 0)
(0 -0.0004 0)
(0 -0.0004 0)
(0 -0.0004 0)
(0 -0.0004 0)
(0 -0.0004 0)
(0 -0.0004 0)
(0 -0.0004 0)
(0 -0.0004 0)
(0 -0.0004 0)
(0 -0.0004 0)
(0 -0.0004 0)
(0 -0.0004 0)
(0 -0.0004 0)
(0 -0.0004 0)
(0 -0.0004 0)
(0 -0.0004 0)
(0 -0.0004 0)
(0 -0.0004 0)
(0 -0.0004 0)
(0 -0.0004 0)
(0 -0.0004 0)
(0 -0.0004 0)
(0 -0.0004 0)
(0 -0.0004 0)
(0 -0.0004 0)
(0 -0.0004 0)
(0 -0.0004 0)
(0 -0.0004 0)
(0 -0.0004 0)
(0 -0.0004 0)
(0 -0.0004 0)
(0 -0.0004 0)
(0 -0.0004 0)
(0 -0.0004 0)
(0 -0.0004 0)
(0 -0.0004 0)
(0 -0.0004 0)
(0 -0.0004 0)
(0 -0.0004 0)
(0 -0.0004 0)
(0 -0.0004 0)
(0 -0.0004 0)
(0 -0.0004 0)
(0 -0.0004 0)
(0 -0.0004 0)
(0 -0.0004 0)
(0 -0.0004 0)
(0 -0.0004 0)
(0 -0.0004 0)
(0 -0.0004 0)
(0 -0.0004 0)
(0 -0.0004 0)
(0 -0.0004 0)
(0 -0.0004 0)
(0 -0.0004 0)
(0 -0.0004 0)
)
;
    }
    wall_maxY
    {
        type            calculated;
        value           nonuniform List<vector> 
100
(
(0 0.0004 0)
(0 0.0004 0)
(0 0.0004 0)
(0 0.0004 0)
(0 0.0004 0)
(0 0.0004 0)
(0 0.0004 0)
(0 0.0004 0)
(0 0.0004 0)
(0 0.0004 0)
(0 0.0004 0)
(0 0.0004 0)
(0 0.0004 0)
(0 0.0004 0)
(0 0.0004 0)
(0 0.0004 0)
(0 0.0004 0)
(0 0.0004 0)
(0 0.0004 0)
(0 0.0004 0)
(0 0.0004 0)
(0 0.0004 0)
(0 0.0004 0)
(0 0.0004 0)
(0 0.0004 0)
(0 0.0004 0)
(0 0.0004 0)
(0 0.0004 0)
(0 0.0004 0)
(0 0.0004 0)
(0 0.0004 0)
(0 0.0004 0)
(0 0.0004 0)
(0 0.0004 0)
(0 0.0004 0)
(0 0.0004 0)
(0 0.0004 0)
(0 0.0004 0)
(0 0.0004 0)
(0 0.0004 0)
(0 0.0004 0)
(0 0.0004 0)
(0 0.0004 0)
(0 0.0004 0)
(0 0.0004 0)
(0 0.0004 0)
(0 0.0004 0)
(0 0.0004 0)
(0 0.0004 0)
(0 0.0004 0)
(0 0.0004 0)
(0 0.0004 0)
(0 0.0004 0)
(0 0.0004 0)
(0 0.0004 0)
(0 0.0004 0)
(0 0.0004 0)
(0 0.0004 0)
(0 0.0004 0)
(0 0.0004 0)
(0 0.0004 0)
(0 0.0004 0)
(0 0.0004 0)
(0 0.0004 0)
(0 0.0004 0)
(0 0.0004 0)
(0 0.0004 0)
(0 0.0004 0)
(0 0.0004 0)
(0 0.0004 0)
(0 0.0004 0)
(0 0.0004 0)
(0 0.0004 0)
(0 0.0004 0)
(0 0.0004 0)
(0 0.0004 0)
(0 0.0004 0)
(0 0.0004 0)
(0 0.0004 0)
(0 0.0004 0)
(0 0.0004 0)
(0 0.0004 0)
(0 0.0004 0)
(0 0.0004 0)
(0 0.0004 0)
(0 0.0004 0)
(0 0.0004 0)
(0 0.0004 0)
(0 0.0004 0)
(0 0.0004 0)
(0 0.0004 0)
(0 0.0004 0)
(0 0.0004 0)
(0 0.0004 0)
(0 0.0004 0)
(0 0.0004 0)
(0 0.0004 0)
(0 0.0004 0)
(0 0.0004 0)
(0 0.0004 0)
)
;
    }
    inlet_minZ
    {
        type            calculated;
        value           nonuniform List<vector> 
25
(
(0 0 -0.0004)
(0 0 -0.0004)
(0 0 -0.0004)
(0 0 -0.0004)
(0 0 -0.0004)
(0 0 -0.0004)
(0 0 -0.0004)
(0 0 -0.0004)
(0 0 -0.0004)
(0 0 -0.0004)
(0 0 -0.0004)
(0 0 -0.0004)
(0 0 -0.0004)
(0 0 -0.0004)
(0 0 -0.0004)
(0 0 -0.0004)
(0 0 -0.0004)
(0 0 -0.0004)
(0 0 -0.0004)
(0 0 -0.0004)
(0 0 -0.0004)
(0 0 -0.0004)
(0 0 -0.0004)
(0 0 -0.0004)
(0 0 -0.0004)
)
;
    }
    outlet_maxZ
    {
        type            calculated;
        value           nonuniform List<vector> 
25
(
(0 0 0.0004)
(0 0 0.0004)
(0 0 0.0004)
(0 0 0.0004)
(0 0 0.0004)
(0 0 0.0004)
(0 0 0.0004)
(0 0 0.0004)
(0 0 0.0004)
(0 0 0.0004)
(0 0 0.0004)
(0 0 0.0004)
(0 0 0.0004)
(0 0 0.0004)
(0 0 0.0004)
(0 0 0.0004)
(0 0 0.0004)
(0 0 0.0004)
(0 0 0.0004)
(0 0 0.0004)
(0 0 0.0004)
(0 0 0.0004)
(0 0 0.0004)
(0 0 0.0004)
(0 0 0.0004)
)
;
    }
}


// ************************************************************************* //
