
/*--------------------------------*- C++ -*----------------------------------*\
  =========                 |
  \      /  F ield         | OpenFOAM: The Open Source CFD Toolbox
   \    /   O peration     | Website:  https://openfoam.org
    \  /    A nd           | Version:  dev
     \/     M anipulation  |
\*---------------------------------------------------------------------------*/
FoamFile
{
    format      ascii;
    class       dictionary;
    object      topoSetDict;
}
// * * * * * * * * * * * * * * * * * * * * * * * * * * * * * * * * * * * * * //

actions
(
 
    {
        name         block1_cell;
        type         cellSet;
        action       new;
        source       searchableSurfaceToCell; 
        surfaceType  triSurfaceMesh;
        surfaceName  block1.stl;
    }
     
    {
        name        block1_Zone;
        type        cellZoneSet;
        action      new;
        source      setToCellZone;
        set         block1_cell;
    }
     
    {
        name         block2_cell;
        type         cellSet;
        action       new;
        source       searchableSurfaceToCell; 
        surfaceType  triSurfaceMesh;
        surfaceName  block2.stl;
    }
     
    {
        name        block2_Zone;
        type        cellZoneSet;
        action      new;
        source      setToCellZone;
        set         block2_cell;
    }
     
    {
        name         block3_cell;
        type         cellSet;
        action       new;
        source       searchableSurfaceToCell; 
        surfaceType  triSurfaceMesh;
        surfaceName  block3.stl;
    }
     
    {
        name        block3_Zone;
        type        cellZoneSet;
        action      new;
        source      setToCellZone;
        set         block3_cell;
    }
     
    {
        name         block4_cell;
        type         cellSet;
        action       new;
        source       searchableSurfaceToCell; 
        surfaceType  triSurfaceMesh;
        surfaceName  block4.stl;
    }
     
    {
        name        block4_Zone;
        type        cellZoneSet;
        action      new;
        source      setToCellZone;
        set         block4_cell;
    }
     
    {
        name         block5_cell;
        type         cellSet;
        action       new;
        source       searchableSurfaceToCell; 
        surfaceType  triSurfaceMesh;
        surfaceName  block5.stl;
    }
     
    {
        name        block5_Zone;
        type        cellZoneSet;
        action      new;
        source      setToCellZone;
        set         block5_cell;
    }
    
);
 // ************************************************************************* //
    