/*--------------------------------*- C++ -*----------------------------------*\
| =========                 |                                                 |
| \\      /  F ield         | OpenFOAM: The Open Source CFD Toolbox           |
|  \\    /   O peration     | Version:  v2106                                 |
|   \\  /    A nd           | Website:  www.openfoam.com                      |
|    \\/     M anipulation  |                                                 |
\*---------------------------------------------------------------------------*/
FoamFile
{
    version     2.0;
    format      ascii;
    arch        "LSB;label=32;scalar=64";
    class       polyBoundaryMesh;
    location    "constant/polyMesh";
    object      boundary;
}
// * * * * * * * * * * * * * * * * * * * * * * * * * * * * * * * * * * * * * //

60
(
    block1_in
    {
        type            patch;
        nFaces          100;
        startFace       55000;
    }
    block1_wall1
    {
        type            wall;
        inGroups        1(wall);
        nFaces          200;
        startFace       55100;
    }
    block1_wall2
    {
        type            wall;
        inGroups        1(wall);
        nFaces          200;
        startFace       55300;
    }
    block1_wall3
    {
        type            wall;
        inGroups        1(wall);
        nFaces          200;
        startFace       55500;
    }
    block1_wall4
    {
        type            wall;
        inGroups        1(wall);
        nFaces          200;
        startFace       55700;
    }
    block2_wall1
    {
        type            wall;
        inGroups        1(wall);
        nFaces          200;
        startFace       55900;
    }
    block2_wall2
    {
        type            wall;
        inGroups        1(wall);
        nFaces          200;
        startFace       56100;
    }
    block2_wall3
    {
        type            wall;
        inGroups        1(wall);
        nFaces          200;
        startFace       56300;
    }
    block2_wall4
    {
        type            wall;
        inGroups        1(wall);
        nFaces          200;
        startFace       56500;
    }
    block3_wall1
    {
        type            wall;
        inGroups        1(wall);
        nFaces          200;
        startFace       56700;
    }
    block3_wall2
    {
        type            wall;
        inGroups        1(wall);
        nFaces          200;
        startFace       56900;
    }
    block3_wall3
    {
        type            wall;
        inGroups        1(wall);
        nFaces          200;
        startFace       57100;
    }
    block3_wall4
    {
        type            wall;
        inGroups        1(wall);
        nFaces          200;
        startFace       57300;
    }
    block4_wall1
    {
        type            wall;
        inGroups        1(wall);
        nFaces          200;
        startFace       57500;
    }
    block4_wall2
    {
        type            wall;
        inGroups        1(wall);
        nFaces          200;
        startFace       57700;
    }
    block4_wall3
    {
        type            wall;
        inGroups        1(wall);
        nFaces          200;
        startFace       57900;
    }
    block4_wall4
    {
        type            wall;
        inGroups        1(wall);
        nFaces          200;
        startFace       58100;
    }
    block5_wall1
    {
        type            wall;
        inGroups        1(wall);
        nFaces          200;
        startFace       58300;
    }
    block5_wall2
    {
        type            wall;
        inGroups        1(wall);
        nFaces          200;
        startFace       58500;
    }
    block5_wall3
    {
        type            wall;
        inGroups        1(wall);
        nFaces          200;
        startFace       58700;
    }
    block5_wall4
    {
        type            wall;
        inGroups        1(wall);
        nFaces          200;
        startFace       58900;
    }
    block6_wall1
    {
        type            wall;
        inGroups        1(wall);
        nFaces          200;
        startFace       59100;
    }
    block6_wall2
    {
        type            wall;
        inGroups        1(wall);
        nFaces          200;
        startFace       59300;
    }
    block6_wall3
    {
        type            wall;
        inGroups        1(wall);
        nFaces          200;
        startFace       59500;
    }
    block6_wall4
    {
        type            wall;
        inGroups        1(wall);
        nFaces          200;
        startFace       59700;
    }
    block7_wall1
    {
        type            wall;
        inGroups        1(wall);
        nFaces          200;
        startFace       59900;
    }
    block7_wall2
    {
        type            wall;
        inGroups        1(wall);
        nFaces          200;
        startFace       60100;
    }
    block7_wall3
    {
        type            wall;
        inGroups        1(wall);
        nFaces          200;
        startFace       60300;
    }
    block7_wall4
    {
        type            wall;
        inGroups        1(wall);
        nFaces          200;
        startFace       60500;
    }
    block8_wall1
    {
        type            wall;
        inGroups        1(wall);
        nFaces          200;
        startFace       60700;
    }
    block8_wall2
    {
        type            wall;
        inGroups        1(wall);
        nFaces          200;
        startFace       60900;
    }
    block8_wall3
    {
        type            wall;
        inGroups        1(wall);
        nFaces          200;
        startFace       61100;
    }
    block8_wall4
    {
        type            wall;
        inGroups        1(wall);
        nFaces          200;
        startFace       61300;
    }
    block9_wall1
    {
        type            wall;
        inGroups        1(wall);
        nFaces          200;
        startFace       61500;
    }
    block9_wall2
    {
        type            wall;
        inGroups        1(wall);
        nFaces          200;
        startFace       61700;
    }
    block9_wall3
    {
        type            wall;
        inGroups        1(wall);
        nFaces          200;
        startFace       61900;
    }
    block9_wall4
    {
        type            wall;
        inGroups        1(wall);
        nFaces          200;
        startFace       62100;
    }
    block10_out
    {
        type            patch;
        nFaces          100;
        startFace       62300;
    }
    block10_wall1
    {
        type            wall;
        inGroups        1(wall);
        nFaces          200;
        startFace       62400;
    }
    block10_wall2
    {
        type            wall;
        inGroups        1(wall);
        nFaces          200;
        startFace       62600;
    }
    block10_wall3
    {
        type            wall;
        inGroups        1(wall);
        nFaces          200;
        startFace       62800;
    }
    block10_wall4
    {
        type            wall;
        inGroups        1(wall);
        nFaces          200;
        startFace       63000;
    }
    interface_block1_out
    {
        type            cyclic;
        inGroups        1(cyclic);
        nFaces          100;
        startFace       63200;
        matchTolerance  0.0001;
        transform       coincidentFullMatch;
        neighbourPatch  interface_block2_in;
    }
    interface_block2_in
    {
        type            cyclic;
        inGroups        1(cyclic);
        nFaces          100;
        startFace       63300;
        matchTolerance  0.0001;
        transform       coincidentFullMatch;
        neighbourPatch  interface_block1_out;
    }
    interface_block2_out
    {
        type            cyclic;
        inGroups        1(cyclic);
        nFaces          100;
        startFace       63400;
        matchTolerance  0.0001;
        transform       coincidentFullMatch;
        neighbourPatch  interface_block3_in;
    }
    interface_block3_in
    {
        type            cyclic;
        inGroups        1(cyclic);
        nFaces          100;
        startFace       63500;
        matchTolerance  0.0001;
        transform       coincidentFullMatch;
        neighbourPatch  interface_block2_out;
    }
    interface_block3_out
    {
        type            cyclic;
        inGroups        1(cyclic);
        nFaces          100;
        startFace       63600;
        matchTolerance  0.0001;
        transform       coincidentFullMatch;
        neighbourPatch  interface_block4_in;
    }
    interface_block4_in
    {
        type            cyclic;
        inGroups        1(cyclic);
        nFaces          100;
        startFace       63700;
        matchTolerance  0.0001;
        transform       coincidentFullMatch;
        neighbourPatch  interface_block3_out;
    }
    interface_block4_out
    {
        type            cyclic;
        inGroups        1(cyclic);
        nFaces          100;
        startFace       63800;
        matchTolerance  0.0001;
        transform       coincidentFullMatch;
        neighbourPatch  interface_block5_in;
    }
    interface_block5_in
    {
        type            cyclic;
        inGroups        1(cyclic);
        nFaces          100;
        startFace       63900;
        matchTolerance  0.0001;
        transform       coincidentFullMatch;
        neighbourPatch  interface_block4_out;
    }
    interface_block5_out
    {
        type            cyclic;
        inGroups        1(cyclic);
        nFaces          100;
        startFace       64000;
        matchTolerance  0.0001;
        transform       coincidentFullMatch;
        neighbourPatch  interface_block6_in;
    }
    interface_block6_in
    {
        type            cyclic;
        inGroups        1(cyclic);
        nFaces          100;
        startFace       64100;
        matchTolerance  0.0001;
        transform       coincidentFullMatch;
        neighbourPatch  interface_block5_out;
    }
    interface_block6_out
    {
        type            cyclic;
        inGroups        1(cyclic);
        nFaces          100;
        startFace       64200;
        matchTolerance  0.0001;
        transform       coincidentFullMatch;
        neighbourPatch  interface_block7_in;
    }
    interface_block7_in
    {
        type            cyclic;
        inGroups        1(cyclic);
        nFaces          100;
        startFace       64300;
        matchTolerance  0.0001;
        transform       coincidentFullMatch;
        neighbourPatch  interface_block6_out;
    }
    interface_block7_out
    {
        type            cyclic;
        inGroups        1(cyclic);
        nFaces          100;
        startFace       64400;
        matchTolerance  0.0001;
        transform       coincidentFullMatch;
        neighbourPatch  interface_block8_in;
    }
    interface_block8_in
    {
        type            cyclic;
        inGroups        1(cyclic);
        nFaces          100;
        startFace       64500;
        matchTolerance  0.0001;
        transform       coincidentFullMatch;
        neighbourPatch  interface_block7_out;
    }
    interface_block8_out
    {
        type            cyclic;
        inGroups        1(cyclic);
        nFaces          100;
        startFace       64600;
        matchTolerance  0.0001;
        transform       coincidentFullMatch;
        neighbourPatch  interface_block9_in;
    }
    interface_block9_in
    {
        type            cyclic;
        inGroups        1(cyclic);
        nFaces          100;
        startFace       64700;
        matchTolerance  0.0001;
        transform       coincidentFullMatch;
        neighbourPatch  interface_block8_out;
    }
    interface_block9_out
    {
        type            cyclic;
        inGroups        1(cyclic);
        nFaces          100;
        startFace       64800;
        matchTolerance  0.0001;
        transform       coincidentFullMatch;
        neighbourPatch  interface_block10_in;
    }
    interface_block10_in
    {
        type            cyclic;
        inGroups        1(cyclic);
        nFaces          100;
        startFace       64900;
        matchTolerance  0.0001;
        transform       coincidentFullMatch;
        neighbourPatch  interface_block9_out;
    }
)

// ************************************************************************* //
