/*--------------------------------*- C++ -*----------------------------------*\
| =========                 |                                                 |
| \\      /  F ield         | OpenFOAM: The Open Source CFD Toolbox           |
|  \\    /   O peration     | Version:  v2106                                 |
|   \\  /    A nd           | Website:  www.openfoam.com                      |
|    \\/     M anipulation  |                                                 |
\*---------------------------------------------------------------------------*/
FoamFile
{
    version     2.0;
    format      ascii;
    arch        "LSB;label=32;scalar=64";
    class       dictionary;
    location    "system";
    object      DGdict;
}
// * * * * * * * * * * * * * * * * * * * * * * * * * * * * * * * * * * * * * //

// system parameter
modesNum                3;
elementNum              5;

// Discontinuity galerkin method parameters, add to dict reading later
epsilonPara             1.0;
xigema0                 100000.0;
xigema1                 10000.0;
beta0                   1.0;
beta1                   1.0;

// phiscal parameter
heatConductivity        2.5e-3;
Tin                     273.0;
Tout                    573.0;


// ************************************************************************* //
