/*--------------------------------*- C++ -*----------------------------------*\
| =========                 |                                                 |
| \\      /  F ield         | OpenFOAM: The Open Source CFD Toolbox           |
|  \\    /   O peration     | Version:  2.2.2                                 |
|   \\  /    A nd           | Web:      www.OpenFOAM.org                      |
|    \\/     M anipulation  |                                                 |
\*---------------------------------------------------------------------------*/
FoamFile
{
    version     2.0;
    format      ascii;
    class       dictionary;
    location    "system";
    object      fvSolution;
}
// * * * * * * * * * * * * * * * * * * * * * * * * * * * * * * * * * * * * * //

solvers
{


    p
    {
        solver          PCG;
        preconditioner  DIC;
        tolerance       1e-05;
        relTol          0.0;
    }


    U
    {
        solver          PBiCG;
        preconditioner  DILU;
        tolerance       1e-05;
        relTol          0.0;
    }


/*
    p
    {
        solver          GAMG;
        smoother        GaussSeidel;
        cacheAgglomeration true;
        nCellsInCoarsestLevel 10;
        agglomerator    faceAreaPair;
        mergeLevels     1;

        tolerance       1e-05;
        relTol          0.05;
    }

    pFinal
    {
        solver          GAMG;
        smoother        GaussSeidel;
        cacheAgglomeration true;
        nCellsInCoarsestLevel 10;
        agglomerator    faceAreaPair;
        mergeLevels     1;

        tolerance       1e-05;
        relTol          0;
    }




   "(U|k|epsilon)"
    {
        solver          smoothSolver;
        smoother        GaussSeidel;
        tolerance       1e-05;
        relTol          0.05;
    }

    "(U|k|epsilon)Final"
    {
        solver          PBiCG;
        preconditioner  DILU;

        tolerance       1e-05;
        relTol          0;
    }

*/



}

SIMPLE
{


    nNonOrthogonalCorrectors 1;


/*
    residualControl
    {
        p               1e-5;
        U               1e-5;
    "(k|epsilon|omega)" 1e-5;
    }
*/


}

relaxationFactors
{
        p               0.3;
        U               0.7;
}


// ************************************************************************* //
