/*--------------------------------*- C++ -*----------------------------------*\
| =========                 |                                                 |
| \\      /  F ield         | OpenFOAM: The Open Source CFD Toolbox           |
|  \\    /   O peration     | Version:  v2106                                 |
|   \\  /    A nd           | Website:  www.openfoam.com                      |
|    \\/     M anipulation  |                                                 |
\*---------------------------------------------------------------------------*/
FoamFile
{
    version     2.0;
    format      ascii;
    arch        "LSB;label=32;scalar=64";
    class       dictionary;
    location    "system";
    object      svdDict;
}
// * * * * * * * * * * * * * * * * * * * * * * * * * * * * * * * * * * * * * //

timeInterval    0.1;

modeExtract     4;

snapshotsNum    500;

calCoeffFile    ( "coeff_calculate0" "coeff_calculate1" "coeff_calculate2" "coeff_calculate3" );

modesName       ( "subDModesM0" "subDModesM1" "subDModesM2" "subDModesM3" );

snapshotsMatrixName ( "subDFieldValue0" "subDFieldValue1" "subDFieldValue2" "subDFieldValue3" );


// ************************************************************************* //
