/*--------------------------------*- C++ -*----------------------------------*\
| =========                 |                                                 |
| \\      /  F ield         | OpenFOAM: The Open Source CFD Toolbox           |
|  \\    /   O peration     | Version:  v2106                                 |
|   \\  /    A nd           | Website:  www.openfoam.com                      |
|    \\/     M anipulation  |                                                 |
\*---------------------------------------------------------------------------*/
FoamFile
{
    version     2.0;
    format      ascii;
    class       dictionary;
    object      topoSetDict;
}
// * * * * * * * * * * * * * * * * * * * * * * * * * * * * * * * * * * * * * //

actions
(
    {
        name    subdomain1;
        type    cellZoneSet;
        action  new;
        source  boxToCell;
        box     (-0.05 -0.05 -0.2) (0.05 0 0);
    }

    {
        name    subdomain2;
        type    cellZoneSet;
        action  new;
        source  boxToCell;
        box     (-0.05 0 -0.2) (0.05 0.05 0);
    }

    {
        name    subdomain3;
        type    cellZoneSet;
        action  new;
        source  boxToCell;
        box     (-0.05 -0.05 0) (0.05 0 0.2);
    }

    {
        name    subdomain4;
        type    cellZoneSet;
        action  new;
        source  boxToCell;
        box     (-0.05 0 0) (0.05 0.05 0.2);
    }
);

// ************************************************************************* //
