
/*--------------------------------*- C++ -*----------------------------------*\
  =========                 |
  \      /  F ield         | OpenFOAM: The Open Source CFD Toolbox
   \    /   O peration     | Website:  https://openfoam.org
    \  /    A nd           | Version:  dev
     \/     M anipulation  |
\*---------------------------------------------------------------------------*/
FoamFile
{
    format      ascii;
    class       dictionary;
    object      topoSetDict;
}
// * * * * * * * * * * * * * * * * * * * * * * * * * * * * * * * * * * * * * //

actions
(
 
    {
        name         block1_cell;
        type         cellSet;
        action       new;
        source       searchableSurfaceToCell; 
        surfaceType  triSurfaceMesh;
        surfaceName  block1.stl;
    }
     
    {
        name        block1_Zone;
        type        cellZoneSet;
        action      new;
        source      setToCellZone;
        set         block1_cell;
    }
     
    {
        name         block2_cell;
        type         cellSet;
        action       new;
        source       searchableSurfaceToCell; 
        surfaceType  triSurfaceMesh;
        surfaceName  block2.stl;
    }
     
    {
        name        block2_Zone;
        type        cellZoneSet;
        action      new;
        source      setToCellZone;
        set         block2_cell;
    }
     
    {
        name         block3_cell;
        type         cellSet;
        action       new;
        source       searchableSurfaceToCell; 
        surfaceType  triSurfaceMesh;
        surfaceName  block3.stl;
    }
     
    {
        name        block3_Zone;
        type        cellZoneSet;
        action      new;
        source      setToCellZone;
        set         block3_cell;
    }
     
    {
        name         block4_cell;
        type         cellSet;
        action       new;
        source       searchableSurfaceToCell; 
        surfaceType  triSurfaceMesh;
        surfaceName  block4.stl;
    }
     
    {
        name        block4_Zone;
        type        cellZoneSet;
        action      new;
        source      setToCellZone;
        set         block4_cell;
    }
     
    {
        name         block5_cell;
        type         cellSet;
        action       new;
        source       searchableSurfaceToCell; 
        surfaceType  triSurfaceMesh;
        surfaceName  block5.stl;
    }
     
    {
        name        block5_Zone;
        type        cellZoneSet;
        action      new;
        source      setToCellZone;
        set         block5_cell;
    }
     
    {
        name         block6_cell;
        type         cellSet;
        action       new;
        source       searchableSurfaceToCell; 
        surfaceType  triSurfaceMesh;
        surfaceName  block6.stl;
    }
     
    {
        name        block6_Zone;
        type        cellZoneSet;
        action      new;
        source      setToCellZone;
        set         block6_cell;
    }
     
    {
        name         block7_cell;
        type         cellSet;
        action       new;
        source       searchableSurfaceToCell; 
        surfaceType  triSurfaceMesh;
        surfaceName  block7.stl;
    }
     
    {
        name        block7_Zone;
        type        cellZoneSet;
        action      new;
        source      setToCellZone;
        set         block7_cell;
    }
     
    {
        name         block8_cell;
        type         cellSet;
        action       new;
        source       searchableSurfaceToCell; 
        surfaceType  triSurfaceMesh;
        surfaceName  block8.stl;
    }
     
    {
        name        block8_Zone;
        type        cellZoneSet;
        action      new;
        source      setToCellZone;
        set         block8_cell;
    }
     
    {
        name         block9_cell;
        type         cellSet;
        action       new;
        source       searchableSurfaceToCell; 
        surfaceType  triSurfaceMesh;
        surfaceName  block9.stl;
    }
     
    {
        name        block9_Zone;
        type        cellZoneSet;
        action      new;
        source      setToCellZone;
        set         block9_cell;
    }
     
    {
        name         block10_cell;
        type         cellSet;
        action       new;
        source       searchableSurfaceToCell; 
        surfaceType  triSurfaceMesh;
        surfaceName  block10.stl;
    }
     
    {
        name        block10_Zone;
        type        cellZoneSet;
        action      new;
        source      setToCellZone;
        set         block10_cell;
    }
     
    {
        name         block11_cell;
        type         cellSet;
        action       new;
        source       searchableSurfaceToCell; 
        surfaceType  triSurfaceMesh;
        surfaceName  block11.stl;
    }
     
    {
        name        block11_Zone;
        type        cellZoneSet;
        action      new;
        source      setToCellZone;
        set         block11_cell;
    }
     
    {
        name         block12_cell;
        type         cellSet;
        action       new;
        source       searchableSurfaceToCell; 
        surfaceType  triSurfaceMesh;
        surfaceName  block12.stl;
    }
     
    {
        name        block12_Zone;
        type        cellZoneSet;
        action      new;
        source      setToCellZone;
        set         block12_cell;
    }
     
    {
        name         block13_cell;
        type         cellSet;
        action       new;
        source       searchableSurfaceToCell; 
        surfaceType  triSurfaceMesh;
        surfaceName  block13.stl;
    }
     
    {
        name        block13_Zone;
        type        cellZoneSet;
        action      new;
        source      setToCellZone;
        set         block13_cell;
    }
     
    {
        name         block14_cell;
        type         cellSet;
        action       new;
        source       searchableSurfaceToCell; 
        surfaceType  triSurfaceMesh;
        surfaceName  block14.stl;
    }
     
    {
        name        block14_Zone;
        type        cellZoneSet;
        action      new;
        source      setToCellZone;
        set         block14_cell;
    }
     
    {
        name         block15_cell;
        type         cellSet;
        action       new;
        source       searchableSurfaceToCell; 
        surfaceType  triSurfaceMesh;
        surfaceName  block15.stl;
    }
     
    {
        name        block15_Zone;
        type        cellZoneSet;
        action      new;
        source      setToCellZone;
        set         block15_cell;
    }
     
    {
        name         block16_cell;
        type         cellSet;
        action       new;
        source       searchableSurfaceToCell; 
        surfaceType  triSurfaceMesh;
        surfaceName  block16.stl;
    }
     
    {
        name        block16_Zone;
        type        cellZoneSet;
        action      new;
        source      setToCellZone;
        set         block16_cell;
    }
     
    {
        name         block17_cell;
        type         cellSet;
        action       new;
        source       searchableSurfaceToCell; 
        surfaceType  triSurfaceMesh;
        surfaceName  block17.stl;
    }
     
    {
        name        block17_Zone;
        type        cellZoneSet;
        action      new;
        source      setToCellZone;
        set         block17_cell;
    }
     
    {
        name         block18_cell;
        type         cellSet;
        action       new;
        source       searchableSurfaceToCell; 
        surfaceType  triSurfaceMesh;
        surfaceName  block18.stl;
    }
     
    {
        name        block18_Zone;
        type        cellZoneSet;
        action      new;
        source      setToCellZone;
        set         block18_cell;
    }
     
    {
        name         block19_cell;
        type         cellSet;
        action       new;
        source       searchableSurfaceToCell; 
        surfaceType  triSurfaceMesh;
        surfaceName  block19.stl;
    }
     
    {
        name        block19_Zone;
        type        cellZoneSet;
        action      new;
        source      setToCellZone;
        set         block19_cell;
    }
     
    {
        name         block20_cell;
        type         cellSet;
        action       new;
        source       searchableSurfaceToCell; 
        surfaceType  triSurfaceMesh;
        surfaceName  block20.stl;
    }
     
    {
        name        block20_Zone;
        type        cellZoneSet;
        action      new;
        source      setToCellZone;
        set         block20_cell;
    }
     
    {
        name         block21_cell;
        type         cellSet;
        action       new;
        source       searchableSurfaceToCell; 
        surfaceType  triSurfaceMesh;
        surfaceName  block21.stl;
    }
     
    {
        name        block21_Zone;
        type        cellZoneSet;
        action      new;
        source      setToCellZone;
        set         block21_cell;
    }
     
    {
        name         block22_cell;
        type         cellSet;
        action       new;
        source       searchableSurfaceToCell; 
        surfaceType  triSurfaceMesh;
        surfaceName  block22.stl;
    }
     
    {
        name        block22_Zone;
        type        cellZoneSet;
        action      new;
        source      setToCellZone;
        set         block22_cell;
    }
     
    {
        name         block23_cell;
        type         cellSet;
        action       new;
        source       searchableSurfaceToCell; 
        surfaceType  triSurfaceMesh;
        surfaceName  block23.stl;
    }
     
    {
        name        block23_Zone;
        type        cellZoneSet;
        action      new;
        source      setToCellZone;
        set         block23_cell;
    }
     
    {
        name         block24_cell;
        type         cellSet;
        action       new;
        source       searchableSurfaceToCell; 
        surfaceType  triSurfaceMesh;
        surfaceName  block24.stl;
    }
     
    {
        name        block24_Zone;
        type        cellZoneSet;
        action      new;
        source      setToCellZone;
        set         block24_cell;
    }
     
    {
        name         block25_cell;
        type         cellSet;
        action       new;
        source       searchableSurfaceToCell; 
        surfaceType  triSurfaceMesh;
        surfaceName  block25.stl;
    }
     
    {
        name        block25_Zone;
        type        cellZoneSet;
        action      new;
        source      setToCellZone;
        set         block25_cell;
    }
     
    {
        name         block26_cell;
        type         cellSet;
        action       new;
        source       searchableSurfaceToCell; 
        surfaceType  triSurfaceMesh;
        surfaceName  block26.stl;
    }
     
    {
        name        block26_Zone;
        type        cellZoneSet;
        action      new;
        source      setToCellZone;
        set         block26_cell;
    }
     
    {
        name         block27_cell;
        type         cellSet;
        action       new;
        source       searchableSurfaceToCell; 
        surfaceType  triSurfaceMesh;
        surfaceName  block27.stl;
    }
     
    {
        name        block27_Zone;
        type        cellZoneSet;
        action      new;
        source      setToCellZone;
        set         block27_cell;
    }
     
    {
        name         block28_cell;
        type         cellSet;
        action       new;
        source       searchableSurfaceToCell; 
        surfaceType  triSurfaceMesh;
        surfaceName  block28.stl;
    }
     
    {
        name        block28_Zone;
        type        cellZoneSet;
        action      new;
        source      setToCellZone;
        set         block28_cell;
    }
     
    {
        name         block29_cell;
        type         cellSet;
        action       new;
        source       searchableSurfaceToCell; 
        surfaceType  triSurfaceMesh;
        surfaceName  block29.stl;
    }
     
    {
        name        block29_Zone;
        type        cellZoneSet;
        action      new;
        source      setToCellZone;
        set         block29_cell;
    }
     
    {
        name         block30_cell;
        type         cellSet;
        action       new;
        source       searchableSurfaceToCell; 
        surfaceType  triSurfaceMesh;
        surfaceName  block30.stl;
    }
     
    {
        name        block30_Zone;
        type        cellZoneSet;
        action      new;
        source      setToCellZone;
        set         block30_cell;
    }
     
    {
        name         block31_cell;
        type         cellSet;
        action       new;
        source       searchableSurfaceToCell; 
        surfaceType  triSurfaceMesh;
        surfaceName  block31.stl;
    }
     
    {
        name        block31_Zone;
        type        cellZoneSet;
        action      new;
        source      setToCellZone;
        set         block31_cell;
    }
     
    {
        name         block32_cell;
        type         cellSet;
        action       new;
        source       searchableSurfaceToCell; 
        surfaceType  triSurfaceMesh;
        surfaceName  block32.stl;
    }
     
    {
        name        block32_Zone;
        type        cellZoneSet;
        action      new;
        source      setToCellZone;
        set         block32_cell;
    }
     
    {
        name         block33_cell;
        type         cellSet;
        action       new;
        source       searchableSurfaceToCell; 
        surfaceType  triSurfaceMesh;
        surfaceName  block33.stl;
    }
     
    {
        name        block33_Zone;
        type        cellZoneSet;
        action      new;
        source      setToCellZone;
        set         block33_cell;
    }
     
    {
        name         block34_cell;
        type         cellSet;
        action       new;
        source       searchableSurfaceToCell; 
        surfaceType  triSurfaceMesh;
        surfaceName  block34.stl;
    }
     
    {
        name        block34_Zone;
        type        cellZoneSet;
        action      new;
        source      setToCellZone;
        set         block34_cell;
    }
     
    {
        name         block35_cell;
        type         cellSet;
        action       new;
        source       searchableSurfaceToCell; 
        surfaceType  triSurfaceMesh;
        surfaceName  block35.stl;
    }
     
    {
        name        block35_Zone;
        type        cellZoneSet;
        action      new;
        source      setToCellZone;
        set         block35_cell;
    }
     
    {
        name         block36_cell;
        type         cellSet;
        action       new;
        source       searchableSurfaceToCell; 
        surfaceType  triSurfaceMesh;
        surfaceName  block36.stl;
    }
     
    {
        name        block36_Zone;
        type        cellZoneSet;
        action      new;
        source      setToCellZone;
        set         block36_cell;
    }
     
    {
        name         block37_cell;
        type         cellSet;
        action       new;
        source       searchableSurfaceToCell; 
        surfaceType  triSurfaceMesh;
        surfaceName  block37.stl;
    }
     
    {
        name        block37_Zone;
        type        cellZoneSet;
        action      new;
        source      setToCellZone;
        set         block37_cell;
    }
     
    {
        name         block38_cell;
        type         cellSet;
        action       new;
        source       searchableSurfaceToCell; 
        surfaceType  triSurfaceMesh;
        surfaceName  block38.stl;
    }
     
    {
        name        block38_Zone;
        type        cellZoneSet;
        action      new;
        source      setToCellZone;
        set         block38_cell;
    }
     
    {
        name         block39_cell;
        type         cellSet;
        action       new;
        source       searchableSurfaceToCell; 
        surfaceType  triSurfaceMesh;
        surfaceName  block39.stl;
    }
     
    {
        name        block39_Zone;
        type        cellZoneSet;
        action      new;
        source      setToCellZone;
        set         block39_cell;
    }
     
    {
        name         block40_cell;
        type         cellSet;
        action       new;
        source       searchableSurfaceToCell; 
        surfaceType  triSurfaceMesh;
        surfaceName  block40.stl;
    }
     
    {
        name        block40_Zone;
        type        cellZoneSet;
        action      new;
        source      setToCellZone;
        set         block40_cell;
    }
     
    {
        name         block41_cell;
        type         cellSet;
        action       new;
        source       searchableSurfaceToCell; 
        surfaceType  triSurfaceMesh;
        surfaceName  block41.stl;
    }
     
    {
        name        block41_Zone;
        type        cellZoneSet;
        action      new;
        source      setToCellZone;
        set         block41_cell;
    }
     
    {
        name         block42_cell;
        type         cellSet;
        action       new;
        source       searchableSurfaceToCell; 
        surfaceType  triSurfaceMesh;
        surfaceName  block42.stl;
    }
     
    {
        name        block42_Zone;
        type        cellZoneSet;
        action      new;
        source      setToCellZone;
        set         block42_cell;
    }
     
    {
        name         block43_cell;
        type         cellSet;
        action       new;
        source       searchableSurfaceToCell; 
        surfaceType  triSurfaceMesh;
        surfaceName  block43.stl;
    }
     
    {
        name        block43_Zone;
        type        cellZoneSet;
        action      new;
        source      setToCellZone;
        set         block43_cell;
    }
     
    {
        name         block44_cell;
        type         cellSet;
        action       new;
        source       searchableSurfaceToCell; 
        surfaceType  triSurfaceMesh;
        surfaceName  block44.stl;
    }
     
    {
        name        block44_Zone;
        type        cellZoneSet;
        action      new;
        source      setToCellZone;
        set         block44_cell;
    }
     
    {
        name         block45_cell;
        type         cellSet;
        action       new;
        source       searchableSurfaceToCell; 
        surfaceType  triSurfaceMesh;
        surfaceName  block45.stl;
    }
     
    {
        name        block45_Zone;
        type        cellZoneSet;
        action      new;
        source      setToCellZone;
        set         block45_cell;
    }
     
    {
        name         block46_cell;
        type         cellSet;
        action       new;
        source       searchableSurfaceToCell; 
        surfaceType  triSurfaceMesh;
        surfaceName  block46.stl;
    }
     
    {
        name        block46_Zone;
        type        cellZoneSet;
        action      new;
        source      setToCellZone;
        set         block46_cell;
    }
     
    {
        name         block47_cell;
        type         cellSet;
        action       new;
        source       searchableSurfaceToCell; 
        surfaceType  triSurfaceMesh;
        surfaceName  block47.stl;
    }
     
    {
        name        block47_Zone;
        type        cellZoneSet;
        action      new;
        source      setToCellZone;
        set         block47_cell;
    }
     
    {
        name         block48_cell;
        type         cellSet;
        action       new;
        source       searchableSurfaceToCell; 
        surfaceType  triSurfaceMesh;
        surfaceName  block48.stl;
    }
     
    {
        name        block48_Zone;
        type        cellZoneSet;
        action      new;
        source      setToCellZone;
        set         block48_cell;
    }
     
    {
        name         block49_cell;
        type         cellSet;
        action       new;
        source       searchableSurfaceToCell; 
        surfaceType  triSurfaceMesh;
        surfaceName  block49.stl;
    }
     
    {
        name        block49_Zone;
        type        cellZoneSet;
        action      new;
        source      setToCellZone;
        set         block49_cell;
    }
     
    {
        name         block50_cell;
        type         cellSet;
        action       new;
        source       searchableSurfaceToCell; 
        surfaceType  triSurfaceMesh;
        surfaceName  block50.stl;
    }
     
    {
        name        block50_Zone;
        type        cellZoneSet;
        action      new;
        source      setToCellZone;
        set         block50_cell;
    }
     
    {
        name         block51_cell;
        type         cellSet;
        action       new;
        source       searchableSurfaceToCell; 
        surfaceType  triSurfaceMesh;
        surfaceName  block51.stl;
    }
     
    {
        name        block51_Zone;
        type        cellZoneSet;
        action      new;
        source      setToCellZone;
        set         block51_cell;
    }
     
    {
        name         block52_cell;
        type         cellSet;
        action       new;
        source       searchableSurfaceToCell; 
        surfaceType  triSurfaceMesh;
        surfaceName  block52.stl;
    }
     
    {
        name        block52_Zone;
        type        cellZoneSet;
        action      new;
        source      setToCellZone;
        set         block52_cell;
    }
     
    {
        name         block53_cell;
        type         cellSet;
        action       new;
        source       searchableSurfaceToCell; 
        surfaceType  triSurfaceMesh;
        surfaceName  block53.stl;
    }
     
    {
        name        block53_Zone;
        type        cellZoneSet;
        action      new;
        source      setToCellZone;
        set         block53_cell;
    }
     
    {
        name         block54_cell;
        type         cellSet;
        action       new;
        source       searchableSurfaceToCell; 
        surfaceType  triSurfaceMesh;
        surfaceName  block54.stl;
    }
     
    {
        name        block54_Zone;
        type        cellZoneSet;
        action      new;
        source      setToCellZone;
        set         block54_cell;
    }
     
    {
        name         block55_cell;
        type         cellSet;
        action       new;
        source       searchableSurfaceToCell; 
        surfaceType  triSurfaceMesh;
        surfaceName  block55.stl;
    }
     
    {
        name        block55_Zone;
        type        cellZoneSet;
        action      new;
        source      setToCellZone;
        set         block55_cell;
    }
     
    {
        name         block56_cell;
        type         cellSet;
        action       new;
        source       searchableSurfaceToCell; 
        surfaceType  triSurfaceMesh;
        surfaceName  block56.stl;
    }
     
    {
        name        block56_Zone;
        type        cellZoneSet;
        action      new;
        source      setToCellZone;
        set         block56_cell;
    }
     
    {
        name         block57_cell;
        type         cellSet;
        action       new;
        source       searchableSurfaceToCell; 
        surfaceType  triSurfaceMesh;
        surfaceName  block57.stl;
    }
     
    {
        name        block57_Zone;
        type        cellZoneSet;
        action      new;
        source      setToCellZone;
        set         block57_cell;
    }
     
    {
        name         block58_cell;
        type         cellSet;
        action       new;
        source       searchableSurfaceToCell; 
        surfaceType  triSurfaceMesh;
        surfaceName  block58.stl;
    }
     
    {
        name        block58_Zone;
        type        cellZoneSet;
        action      new;
        source      setToCellZone;
        set         block58_cell;
    }
     
    {
        name         block59_cell;
        type         cellSet;
        action       new;
        source       searchableSurfaceToCell; 
        surfaceType  triSurfaceMesh;
        surfaceName  block59.stl;
    }
     
    {
        name        block59_Zone;
        type        cellZoneSet;
        action      new;
        source      setToCellZone;
        set         block59_cell;
    }
     
    {
        name         block60_cell;
        type         cellSet;
        action       new;
        source       searchableSurfaceToCell; 
        surfaceType  triSurfaceMesh;
        surfaceName  block60.stl;
    }
     
    {
        name        block60_Zone;
        type        cellZoneSet;
        action      new;
        source      setToCellZone;
        set         block60_cell;
    }
     
    {
        name         block61_cell;
        type         cellSet;
        action       new;
        source       searchableSurfaceToCell; 
        surfaceType  triSurfaceMesh;
        surfaceName  block61.stl;
    }
     
    {
        name        block61_Zone;
        type        cellZoneSet;
        action      new;
        source      setToCellZone;
        set         block61_cell;
    }
     
    {
        name         block62_cell;
        type         cellSet;
        action       new;
        source       searchableSurfaceToCell; 
        surfaceType  triSurfaceMesh;
        surfaceName  block62.stl;
    }
     
    {
        name        block62_Zone;
        type        cellZoneSet;
        action      new;
        source      setToCellZone;
        set         block62_cell;
    }
     
    {
        name         block63_cell;
        type         cellSet;
        action       new;
        source       searchableSurfaceToCell; 
        surfaceType  triSurfaceMesh;
        surfaceName  block63.stl;
    }
     
    {
        name        block63_Zone;
        type        cellZoneSet;
        action      new;
        source      setToCellZone;
        set         block63_cell;
    }
     
    {
        name         block64_cell;
        type         cellSet;
        action       new;
        source       searchableSurfaceToCell; 
        surfaceType  triSurfaceMesh;
        surfaceName  block64.stl;
    }
     
    {
        name        block64_Zone;
        type        cellZoneSet;
        action      new;
        source      setToCellZone;
        set         block64_cell;
    }
     
    {
        name         block65_cell;
        type         cellSet;
        action       new;
        source       searchableSurfaceToCell; 
        surfaceType  triSurfaceMesh;
        surfaceName  block65.stl;
    }
     
    {
        name        block65_Zone;
        type        cellZoneSet;
        action      new;
        source      setToCellZone;
        set         block65_cell;
    }
     
    {
        name         block66_cell;
        type         cellSet;
        action       new;
        source       searchableSurfaceToCell; 
        surfaceType  triSurfaceMesh;
        surfaceName  block66.stl;
    }
     
    {
        name        block66_Zone;
        type        cellZoneSet;
        action      new;
        source      setToCellZone;
        set         block66_cell;
    }
     
    {
        name         block67_cell;
        type         cellSet;
        action       new;
        source       searchableSurfaceToCell; 
        surfaceType  triSurfaceMesh;
        surfaceName  block67.stl;
    }
     
    {
        name        block67_Zone;
        type        cellZoneSet;
        action      new;
        source      setToCellZone;
        set         block67_cell;
    }
     
    {
        name         block68_cell;
        type         cellSet;
        action       new;
        source       searchableSurfaceToCell; 
        surfaceType  triSurfaceMesh;
        surfaceName  block68.stl;
    }
     
    {
        name        block68_Zone;
        type        cellZoneSet;
        action      new;
        source      setToCellZone;
        set         block68_cell;
    }
     
    {
        name         block69_cell;
        type         cellSet;
        action       new;
        source       searchableSurfaceToCell; 
        surfaceType  triSurfaceMesh;
        surfaceName  block69.stl;
    }
     
    {
        name        block69_Zone;
        type        cellZoneSet;
        action      new;
        source      setToCellZone;
        set         block69_cell;
    }
     
    {
        name         block70_cell;
        type         cellSet;
        action       new;
        source       searchableSurfaceToCell; 
        surfaceType  triSurfaceMesh;
        surfaceName  block70.stl;
    }
     
    {
        name        block70_Zone;
        type        cellZoneSet;
        action      new;
        source      setToCellZone;
        set         block70_cell;
    }
     
    {
        name         block71_cell;
        type         cellSet;
        action       new;
        source       searchableSurfaceToCell; 
        surfaceType  triSurfaceMesh;
        surfaceName  block71.stl;
    }
     
    {
        name        block71_Zone;
        type        cellZoneSet;
        action      new;
        source      setToCellZone;
        set         block71_cell;
    }
     
    {
        name         block72_cell;
        type         cellSet;
        action       new;
        source       searchableSurfaceToCell; 
        surfaceType  triSurfaceMesh;
        surfaceName  block72.stl;
    }
     
    {
        name        block72_Zone;
        type        cellZoneSet;
        action      new;
        source      setToCellZone;
        set         block72_cell;
    }
     
    {
        name         block73_cell;
        type         cellSet;
        action       new;
        source       searchableSurfaceToCell; 
        surfaceType  triSurfaceMesh;
        surfaceName  block73.stl;
    }
     