/*--------------------------------*- C++ -*----------------------------------*\
| =========                 |                                                 |
| \\      /  F ield         | OpenFOAM: The Open Source CFD Toolbox           |
|  \\    /   O peration     | Version:  v2106                                 |
|   \\  /    A nd           | Website:  www.openfoam.com                      |
|    \\/     M anipulation  |                                                 |
\*---------------------------------------------------------------------------*/
FoamFile
{
    version     2.0;
    format      ascii;
    arch        "LSB;label=32;scalar=64";
    class       polyBoundaryMesh;
    location    "constant/polyMesh";
    object      boundary;
}
// * * * * * * * * * * * * * * * * * * * * * * * * * * * * * * * * * * * * * //

6
(
    wall_minX
    {
        type            patch;
        nFaces          1600;
        startFace       92400;
    }
    wall_maxX
    {
        type            patch;
        nFaces          1600;
        startFace       94000;
    }
    wall_minY
    {
        type            patch;
        nFaces          1600;
        startFace       95600;
    }
    wall_maxY
    {
        type            patch;
        nFaces          1600;
        startFace       97200;
    }
    inlet_minZ
    {
        type            patch;
        nFaces          400;
        startFace       98800;
    }
    outlet_maxZ
    {
        type            patch;
        nFaces          400;
        startFace       99200;
    }
)

// ************************************************************************* //
