/*--------------------------------*- C++ -*----------------------------------*\
| =========                 |                                                 |
| \\      /  F ield         | OpenFOAM: The Open Source CFD Toolbox           |
|  \\    /   O peration     | Version:  v2106                                 |
|   \\  /    A nd           | Website:  www.openfoam.com                      |
|    \\/     M anipulation  |                                                 |
\*---------------------------------------------------------------------------*/
FoamFile
{
    version     2.0;
    format      ascii;
    arch        "LSB;label=32;scalar=64";
    class       polyBoundaryMesh;
    location    "0.005/polyMesh";
    object      boundary;
}
// * * * * * * * * * * * * * * * * * * * * * * * * * * * * * * * * * * * * * //

3
(
    wall
    {
        type            wall;
        inGroups        1(wall);
        nFaces          12;
        startFace       4;
    }
    test_inlet
    {
        type            patch;
        nFaces          2;
        startFace       16;
    }
    test_outlet
    {
        type            patch;
        nFaces          2;
        startFace       18;
    }
)

// ************************************************************************* //
