
/*--------------------------------*- C++ -*----------------------------------*\
  =========                 |
  \\      /  F ield         | OpenFOAM: The Open Source CFD Toolbox
   \\    /   O peration     | Website:  https://openfoam.org
    \\  /    A nd           | Version:  dev
     \\/     M anipulation  |
\*---------------------------------------------------------------------------*/
FoamFile
{
    format      ascii;
    class       dictionary;
    object      createPatchDict;
}

// * * * * * * * * * * * * * * * * * * * * * * * * * * * * * * * * * * * * * //

pointSync false;

patches
(
    
    {
        name                interface_block1_out;
        patchInfo
        {
            type            cyclic;
            neighbourPatch  interface_block2_in;
            transform       coincidentFullMatch;
        }
        constructFrom patches;
        patches (block1_out);
    }

    {
        name                interface_block2_in;
        patchInfo
        {
            type            cyclic;
            neighbourPatch  interface_block1_out;
            transform       coincidentFullMatch;
        }
        constructFrom patches;
        patches (block2_in);
    }

    {
        name                interface_block2_out;
        patchInfo
        {
            type            cyclic;
            neighbourPatch  interface_block3_in;
            transform       coincidentFullMatch;
        }
        constructFrom patches;
        patches (block2_out);
    }

    {
        name                interface_block3_in;
        patchInfo
        {
            type            cyclic;
            neighbourPatch  interface_block2_out;
            transform       coincidentFullMatch;
        }
        constructFrom patches;
        patches (block3_in);
    }

    {
        name                interface_block3_out;
        patchInfo
        {
            type            cyclic;
            neighbourPatch  interface_block4_in;
            transform       coincidentFullMatch;
        }
        constructFrom patches;
        patches (block3_out);
    }

    {
        name                interface_block4_in;
        patchInfo
        {
            type            cyclic;
            neighbourPatch  interface_block3_out;
            transform       coincidentFullMatch;
        }
        constructFrom patches;
        patches (block4_in);
    }

    {
        name                interface_block4_out;
        patchInfo
        {
            type            cyclic;
            neighbourPatch  interface_block5_in;
            transform       coincidentFullMatch;
        }
        constructFrom patches;
        patches (block4_out);
    }

    {
        name                interface_block5_in;
        patchInfo
        {
            type            cyclic;
            neighbourPatch  interface_block4_out;
            transform       coincidentFullMatch;
        }
        constructFrom patches;
        patches (block5_in);
    }

);

// ************************************************************************* //
    