/*--------------------------------*- C++ -*----------------------------------*\
| =========                 |                                                 |
| \\      /  F ield         | OpenFOAM: The Open Source CFD Toolbox           |
|  \\    /   O peration     | Version:  v2106                                 |
|   \\  /    A nd           | Website:  www.openfoam.com                      |
|    \\/     M anipulation  |                                                 |
\*---------------------------------------------------------------------------*/
FoamFile
{
    version     2.0;
    format      ascii;
    arch        "LSB;label=32;scalar=64";
    class       polyBoundaryMesh;
    location    "0.005/polyMesh";
    object      boundary;
}
// * * * * * * * * * * * * * * * * * * * * * * * * * * * * * * * * * * * * * //

108
(
    block1_bottom
    {
        type            wall;
        inGroups        1(wall);
        nFaces          140;
        startFace       421920;
    }
    block1_west
    {
        type            wall;
        inGroups        1(wall);
        nFaces          420;
        startFace       422060;
    }
    block1_south
    {
        type            wall;
        inGroups        1(wall);
        nFaces          1200;
        startFace       422480;
    }
    block2_bottom
    {
        type            wall;
        inGroups        1(wall);
        nFaces          140;
        startFace       423680;
    }
    block2_west
    {
        type            wall;
        inGroups        1(wall);
        nFaces          420;
        startFace       423820;
    }
    block2_south
    {
        type            wall;
        inGroups        1(wall);
        nFaces          1200;
        startFace       424240;
    }
    block3_bottom
    {
        type            wall;
        inGroups        1(wall);
        nFaces          140;
        startFace       425440;
    }
    block3_west
    {
        type            wall;
        inGroups        1(wall);
        nFaces          420;
        startFace       425580;
    }
    block3_south
    {
        type            wall;
        inGroups        1(wall);
        nFaces          1200;
        startFace       426000;
    }
    block4_bottom
    {
        type            wall;
        inGroups        1(wall);
        nFaces          140;
        startFace       427200;
    }
    block4_west
    {
        type            wall;
        inGroups        1(wall);
        nFaces          420;
        startFace       427340;
    }
    block4_south
    {
        type            wall;
        inGroups        1(wall);
        nFaces          1200;
        startFace       427760;
    }
    block5_bottom
    {
        type            wall;
        inGroups        1(wall);
        nFaces          140;
        startFace       428960;
    }
    block5_west
    {
        type            wall;
        inGroups        1(wall);
        nFaces          420;
        startFace       429100;
    }
    block5_south
    {
        type            wall;
        inGroups        1(wall);
        nFaces          1200;
        startFace       429520;
    }
    block6_bottom
    {
        type            wall;
        inGroups        1(wall);
        nFaces          140;
        startFace       430720;
    }
    block6_west
    {
        type            wall;
        inGroups        1(wall);
        nFaces          420;
        startFace       430860;
    }
    block6_south
    {
        type            wall;
        inGroups        1(wall);
        nFaces          1200;
        startFace       431280;
    }
    block7_west
    {
        type            wall;
        inGroups        1(wall);
        nFaces          420;
        startFace       432480;
    }
    block7_south
    {
        type            wall;
        inGroups        1(wall);
        nFaces          1200;
        startFace       432900;
    }
    block8_west
    {
        type            wall;
        inGroups        1(wall);
        nFaces          420;
        startFace       434100;
    }
    block8_south
    {
        type            wall;
        inGroups        1(wall);
        nFaces          1200;
        startFace       434520;
    }
    block9_west
    {
        type            wall;
        inGroups        1(wall);
        nFaces          420;
        startFace       435720;
    }
    block9_south
    {
        type            wall;
        inGroups        1(wall);
        nFaces          1200;
        startFace       436140;
    }
    block10_west
    {
        type            wall;
        inGroups        1(wall);
        nFaces          420;
        startFace       437340;
    }
    block10_south
    {
        type            wall;
        inGroups        1(wall);
        nFaces          1200;
        startFace       437760;
    }
    block11_west
    {
        type            wall;
        inGroups        1(wall);
        nFaces          420;
        startFace       438960;
    }
    block11_south
    {
        type            wall;
        inGroups        1(wall);
        nFaces          1200;
        startFace       439380;
    }
    block12_west
    {
        type            wall;
        inGroups        1(wall);
        nFaces          420;
        startFace       440580;
    }
    block12_south
    {
        type            wall;
        inGroups        1(wall);
        nFaces          1200;
        startFace       441000;
    }
    block13_top
    {
        type            wall;
        inGroups        1(wall);
        nFaces          140;
        startFace       442200;
    }
    block13_west
    {
        type            wall;
        inGroups        1(wall);
        nFaces          420;
        startFace       442340;
    }
    block13_south
    {
        type            wall;
        inGroups        1(wall);
        nFaces          1200;
        startFace       442760;
    }
    block14_top
    {
        type            wall;
        inGroups        1(wall);
        nFaces          140;
        startFace       443960;
    }
    block14_west
    {
        type            wall;
        inGroups        1(wall);
        nFaces          420;
        startFace       444100;
    }
    block14_south
    {
        type            wall;
        inGroups        1(wall);
        nFaces          1200;
        startFace       444520;
    }
    block15_top
    {
        type            wall;
        inGroups        1(wall);
        nFaces          140;
        startFace       445720;
    }
    block15_west
    {
        type            wall;
        inGroups        1(wall);
        nFaces          420;
        startFace       445860;
    }
    block15_south
    {
        type            wall;
        inGroups        1(wall);
        nFaces          1200;
        startFace       446280;
    }
    block16_top
    {
        type            wall;
        inGroups        1(wall);
        nFaces          140;
        startFace       447480;
    }
    block16_west
    {
        type            wall;
        inGroups        1(wall);
        nFaces          420;
        startFace       447620;
    }
    block16_south
    {
        type            wall;
        inGroups        1(wall);
        nFaces          1200;
        startFace       448040;
    }
    block17_top
    {
        type            wall;
        inGroups        1(wall);
        nFaces          140;
        startFace       449240;
    }
    block17_west
    {
        type            wall;
        inGroups        1(wall);
        nFaces          420;
        startFace       449380;
    }
    block17_south
    {
        type            wall;
        inGroups        1(wall);
        nFaces          1200;
        startFace       449800;
    }
    block18_top
    {
        type            wall;
        inGroups        1(wall);
        nFaces          140;
        startFace       451000;
    }
    block18_west
    {
        type            wall;
        inGroups        1(wall);
        nFaces          420;
        startFace       451140;
    }
    block18_south
    {
        type            wall;
        inGroups        1(wall);
        nFaces          1200;
        startFace       451560;
    }
    interface_block1_top
    {
        type            cyclic;
        inGroups        1(cyclic);
        nFaces          140;
        startFace       452760;
        matchTolerance  0.0001;
        transform       coincidentFullMatch;
        neighbourPatch  interface_block7_bottom;
    }
    interface_block7_bottom
    {
        type            cyclic;
        inGroups        1(cyclic);
        nFaces          140;
        startFace       452900;
        matchTolerance  0.0001;
        transform       coincidentFullMatch;
        neighbourPatch  interface_block1_top;
    }
    interface_block1_east
    {
        type            cyclic;
        inGroups        1(cyclic);
        nFaces          420;
        startFace       453040;
        matchTolerance  0.0001;
        transform       coincidentFullMatch;
        neighbourPatch  interface_block2_east;
    }
    interface_block2_east
    {
        type            cyclic;
        inGroups        1(cyclic);
        nFaces          420;
        startFace       453460;
        matchTolerance  0.0001;
        transform       coincidentFullMatch;
        neighbourPatch  interface_block1_east;
    }
    interface_block1_north
    {
        type            cyclic;
        inGroups        1(cyclic);
        nFaces          1200;
        startFace       453880;
        matchTolerance  0.0001;
        transform       coincidentFullMatch;
        neighbourPatch  interface_block6_north;
    }
    interface_block6_north
    {
        type            cyclic;
        inGroups        1(cyclic);
        nFaces          1200;
        startFace       455080;
        matchTolerance  0.0001;
        transform       coincidentFullMatch;
        neighbourPatch  interface_block1_north;
    }
    interface_block2_top
    {
        type            cyclic;
        inGroups        1(cyclic);
        nFaces          140;
        startFace       456280;
        matchTolerance  0.0001;
        transform       coincidentFullMatch;
        neighbourPatch  interface_block8_bottom;
    }
    interface_block8_bottom
    {
        type            cyclic;
        inGroups        1(cyclic);
        nFaces          140;
        startFace       456420;
        matchTolerance  0.0001;
        transform       coincidentFullMatch;
        neighbourPatch  interface_block2_top;
    }
    interface_block2_north
    {
        type            cyclic;
        inGroups        1(cyclic);
        nFaces          1200;
        startFace       456560;
        matchTolerance  0.0001;
        transform       coincidentFullMatch;
        neighbourPatch  interface_block3_north;
    }
    interface_block3_north
    {
        type            cyclic;
        inGroups        1(cyclic);
        nFaces          1200;
        startFace       457760;
        matchTolerance  0.0001;
        transform       coincidentFullMatch;
        neighbourPatch  interface_block2_north;
    }
    interface_block3_top
    {
        type            cyclic;
        inGroups        1(cyclic);
        nFaces          140;
        startFace       458960;
        matchTolerance  0.0001;
        transform       coincidentFullMatch;
        neighbourPatch  interface_block9_bottom;
    }
    interface_block9_bottom
    {
        type            cyclic;
        inGroups        1(cyclic);
        nFaces          140;
        startFace       459100;
        matchTolerance  0.0001;
        transform       coincidentFullMatch;
        neighbourPatch  interface_block3_top;
    }
    interface_block3_east
    {
        type            cyclic;
        inGroups        1(cyclic);
        nFaces          420;
        startFace       459240;
        matchTolerance  0.0001;
        transform       coincidentFullMatch;
        neighbourPatch  interface_block4_east;
    }
    interface_block4_east
    {
        type            cyclic;
        inGroups        1(cyclic);
        nFaces          420;
        startFace       459660;
        matchTolerance  0.0001;
        transform       coincidentFullMatch;
        neighbourPatch  interface_block3_east;
    }
    interface_block4_top
    {
        type            cyclic;
        inGroups        1(cyclic);
        nFaces          140;
        startFace       460080;
        matchTolerance  0.0001;
        transform       coincidentFullMatch;
        neighbourPatch  interface_block10_bottom;
    }
    interface_block10_bottom
    {
        type            cyclic;
        inGroups        1(cyclic);
        nFaces          140;
        startFace       460220;
        matchTolerance  0.0001;
        transform       coincidentFullMatch;
        neighbourPatch  interface_block4_top;
    }
    interface_block4_north
    {
        type            cyclic;
        inGroups        1(cyclic);
        nFaces          1200;
        startFace       460360;
        matchTolerance  0.0001;
        transform       coincidentFullMatch;
        neighbourPatch  interface_block5_north;
    }
    interface_block5_north
    {
        type            cyclic;
        inGroups        1(cyclic);
        nFaces          1200;
        startFace       461560;
        matchTolerance  0.0001;
        transform       coincidentFullMatch;
        neighbourPatch  interface_block4_north;
    }
    interface_block5_top
    {
        type            cyclic;
        inGroups        1(cyclic);
        nFaces          140;
        startFace       462760;
        matchTolerance  0.0001;
        transform       coincidentFullMatch;
        neighbourPatch  interface_block11_bottom;
    }
    interface_block11_bottom
    {
        type            cyclic;
        inGroups        1(cyclic);
        nFaces          140;
        startFace       462900;
        matchTolerance  0.0001;
        transform       coincidentFullMatch;
        neighbourPatch  interface_block5_top;
    }
    interface_block5_east
    {
        type            cyclic;
        inGroups        1(cyclic);
        nFaces          420;
        startFace       463040;
        matchTolerance  0.0001;
        transform       coincidentFullMatch;
        neighbourPatch  interface_block6_east;
    }
    interface_block6_east
    {
        type            cyclic;
        inGroups        1(cyclic);
        nFaces          420;
        startFace       463460;
        matchTolerance  0.0001;
        transform       coincidentFullMatch;
        neighbourPatch  interface_block5_east;
    }
    interface_block6_top
    {
        type            cyclic;
        inGroups        1(cyclic);
        nFaces          140;
        startFace       463880;
        matchTolerance  0.0001;
        transform       coincidentFullMatch;
        neighbourPatch  interface_block12_bottom;
    }
    interface_block12_bottom
    {
        type            cyclic;
        inGroups        1(cyclic);
        nFaces          140;
        startFace       464020;
        matchTolerance  0.0001;
        transform       coincidentFullMatch;
        neighbourPatch  interface_block6_top;
    }
    interface_block7_top
    {
        type            cyclic;
        inGroups        1(cyclic);
        nFaces          140;
        startFace       464160;
        matchTolerance  0.0001;
        transform       coincidentFullMatch;
        neighbourPatch  interface_block13_bottom;
    }
    interface_block13_bottom
    {
        type            cyclic;
        inGroups        1(cyclic);
        nFaces          140;
        startFace       464300;
        matchTolerance  0.0001;
        transform       coincidentFullMatch;
        neighbourPatch  interface_block7_top;
    }
    interface_block7_east
    {
        type            cyclic;
        inGroups        1(cyclic);
        nFaces          420;
        startFace       464440;
        matchTolerance  0.0001;
        transform       coincidentFullMatch;
        neighbourPatch  interface_block8_east;
    }
    interface_block8_east
    {
        type            cyclic;
        inGroups        1(cyclic);
        nFaces          420;
        startFace       464860;
        matchTolerance  0.0001;
        transform       coincidentFullMatch;
        neighbourPatch  interface_block7_east;
    }
    interface_block7_north
    {
        type            cyclic;
        inGroups        1(cyclic);
        nFaces          1200;
        startFace       465280;
        matchTolerance  0.0001;
        transform       coincidentFullMatch;
        neighbourPatch  interface_block12_north;
    }
    interface_block12_north
    {
        type            cyclic;
        inGroups        1(cyclic);
        nFaces          1200;
        startFace       466480;
        matchTolerance  0.0001;
        transform       coincidentFullMatch;
        neighbourPatch  interface_block7_north;
    }
    interface_block8_top
    {
        type            cyclic;
        inGroups        1(cyclic);
        nFaces          140;
        startFace       467680;
        matchTolerance  0.0001;
        transform       coincidentFullMatch;
        neighbourPatch  interface_block14_bottom;
    }
    interface_block14_bottom
    {
        type            cyclic;
        inGroups        1(cyclic);
        nFaces          140;
        startFace       467820;
        matchTolerance  0.0001;
        transform       coincidentFullMatch;
        neighbourPatch  interface_block8_top;
    }
    interface_block8_north
    {
        type            cyclic;
        inGroups        1(cyclic);
        nFaces          1200;
        startFace       467960;
        matchTolerance  0.0001;
        transform       coincidentFullMatch;
        neighbourPatch  interface_block9_north;
    }
    interface_block9_north
    {
        type            cyclic;
        inGroups        1(cyclic);
        nFaces          1200;
        startFace       469160;
        matchTolerance  0.0001;
        transform       coincidentFullMatch;
        neighbourPatch  interface_block8_north;
    }
    interface_block9_top
    {
        type            cyclic;
        inGroups        1(cyclic);
        nFaces          140;
        startFace       470360;
        matchTolerance  0.0001;
        transform       coincidentFullMatch;
        neighbourPatch  interface_block15_bottom;
    }
    interface_block15_bottom
    {
        type            cyclic;
        inGroups        1(cyclic);
        nFaces          140;
        startFace       470500;
        matchTolerance  0.0001;
        transform       coincidentFullMatch;
        neighbourPatch  interface_block9_top;
    }
    interface_block9_east
    {
        type            cyclic;
        inGroups        1(cyclic);
        nFaces          420;
        startFace       470640;
        matchTolerance  0.0001;
        transform       coincidentFullMatch;
        neighbourPatch  interface_block10_east;
    }
    interface_block10_east
    {
        type            cyclic;
        inGroups        1(cyclic);
        nFaces          420;
        startFace       471060;
        matchTolerance  0.0001;
        transform       coincidentFullMatch;
        neighbourPatch  interface_block9_east;
    }
    interface_block10_top
    {
        type            cyclic;
        inGroups        1(cyclic);
        nFaces          140;
        startFace       471480;
        matchTolerance  0.0001;
        transform       coincidentFullMatch;
        neighbourPatch  interface_block16_bottom;
    }
    interface_block16_bottom
    {
        type            cyclic;
        inGroups        1(cyclic);
        nFaces          140;
        startFace       471620;
        matchTolerance  0.0001;
        transform       coincidentFullMatch;
        neighbourPatch  interface_block10_top;
    }
    interface_block10_north
    {
        type            cyclic;
        inGroups        1(cyclic);
        nFaces          1200;
        startFace       471760;
        matchTolerance  0.0001;
        transform       coincidentFullMatch;
        neighbourPatch  interface_block11_north;
    }
    interface_block11_north
    {
        type            cyclic;
        inGroups        1(cyclic);
        nFaces          1200;
        startFace       472960;
        matchTolerance  0.0001;
        transform       coincidentFullMatch;
        neighbourPatch  interface_block10_north;
    }
    interface_block11_top
    {
        type            cyclic;
        inGroups        1(cyclic);
        nFaces          140;
        startFace       474160;
        matchTolerance  0.0001;
        transform       coincidentFullMatch;
        neighbourPatch  interface_block17_bottom;
    }
    interface_block17_bottom
    {
        type            cyclic;
        inGroups        1(cyclic);
        nFaces          140;
        startFace       474300;
        matchTolerance  0.0001;
        transform       coincidentFullMatch;
        neighbourPatch  interface_block11_top;
    }
    interface_block11_east
    {
        type            cyclic;
        inGroups        1(cyclic);
        nFaces          420;
        startFace       474440;
        matchTolerance  0.0001;
        transform       coincidentFullMatch;
        neighbourPatch  interface_block12_east;
    }
    interface_block12_east
    {
        type            cyclic;
        inGroups        1(cyclic);
        nFaces          420;
        startFace       474860;
        matchTolerance  0.0001;
        transform       coincidentFullMatch;
        neighbourPatch  interface_block11_east;
    }
    interface_block12_top
    {
        type            cyclic;
        inGroups        1(cyclic);
        nFaces          140;
        startFace       475280;
        matchTolerance  0.0001;
        transform       coincidentFullMatch;
        neighbourPatch  interface_block18_bottom;
    }
    interface_block18_bottom
    {
        type            cyclic;
        inGroups        1(cyclic);
        nFaces          140;
        startFace       475420;
        matchTolerance  0.0001;
        transform       coincidentFullMatch;
        neighbourPatch  interface_block12_top;
    }
    interface_block13_east
    {
        type            cyclic;
        inGroups        1(cyclic);
        nFaces          420;
        startFace       475560;
        matchTolerance  0.0001;
        transform       coincidentFullMatch;
        neighbourPatch  interface_block14_east;
    }
    interface_block14_east
    {
        type            cyclic;
        inGroups        1(cyclic);
        nFaces          420;
        startFace       475980;
        matchTolerance  0.0001;
        transform       coincidentFullMatch;
        neighbourPatch  interface_block13_east;
    }
    interface_block13_north
    {
        type            cyclic;
        inGroups        1(cyclic);
        nFaces          1200;
        startFace       476400;
        matchTolerance  0.0001;
        transform       coincidentFullMatch;
        neighbourPatch  interface_block18_north;
    }
    interface_block18_north
    {
        type            cyclic;
        inGroups        1(cyclic);
        nFaces          1200;
        startFace       477600;
        matchTolerance  0.0001;
        transform       coincidentFullMatch;
        neighbourPatch  interface_block13_north;
    }
    interface_block14_north
    {
        type            cyclic;
        inGroups        1(cyclic);
        nFaces          1200;
        startFace       478800;
        matchTolerance  0.0001;
        transform       coincidentFullMatch;
        neighbourPatch  interface_block15_north;
    }
    interface_block15_north
    {
        type            cyclic;
        inGroups        1(cyclic);
        nFaces          1200;
        startFace       480000;
        matchTolerance  0.0001;
        transform       coincidentFullMatch;
        neighbourPatch  interface_block14_north;
    }
    interface_block15_east
    {
        type            cyclic;
        inGroups        1(cyclic);
        nFaces          420;
        startFace       481200;
        matchTolerance  0.0001;
        transform       coincidentFullMatch;
        neighbourPatch  interface_block16_east;
    }
    interface_block16_east
    {
        type            cyclic;
        inGroups        1(cyclic);
        nFaces          420;
        startFace       481620;
        matchTolerance  0.0001;
        transform       coincidentFullMatch;
        neighbourPatch  interface_block15_east;
    }
    interface_block16_north
    {
        type            cyclic;
        inGroups        1(cyclic);
        nFaces          1200;
        startFace       482040;
        matchTolerance  0.0001;
        transform       coincidentFullMatch;
        neighbourPatch  interface_block17_north;
    }
    interface_block17_north
    {
        type            cyclic;
        inGroups        1(cyclic);
        nFaces          1200;
        startFace       483240;
        matchTolerance  0.0001;
        transform       coincidentFullMatch;
        neighbourPatch  interface_block16_north;
    }
    interface_block17_east
    {
        type            cyclic;
        inGroups        1(cyclic);
        nFaces          420;
        startFace       484440;
        matchTolerance  0.0001;
        transform       coincidentFullMatch;
        neighbourPatch  interface_block18_east;
    }
    interface_block18_east
    {
        type            cyclic;
        inGroups        1(cyclic);
        nFaces          420;
        startFace       484860;
        matchTolerance  0.0001;
        transform       coincidentFullMatch;
        neighbourPatch  interface_block17_east;
    }
)

// ************************************************************************* //
