/*--------------------------------*- C++ -*----------------------------------*\
| =========                 |                                                 |
| \\      /  F ield         | OpenFOAM: The Open Source CFD Toolbox           |
|  \\    /   O peration     | Version:  v2106                                 |
|   \\  /    A nd           | Website:  www.openfoam.com                      |
|    \\/     M anipulation  |                                                 |
\*---------------------------------------------------------------------------*/
FoamFile
{
    version     2.0;
    format      ascii;
    arch        "LSB;label=32;scalar=64";
    class       polyBoundaryMesh;
    location    "constant/polyMesh";
    object      boundary;
}
// * * * * * * * * * * * * * * * * * * * * * * * * * * * * * * * * * * * * * //

6
(
    block1_in
    {
        type            patch;
        nFaces          100;
        startFace       5500;
    }
    block1_out
    {
        type            patch;
        nFaces          100;
        startFace       5600;
    }
    block1_wall1
    {
        type            wall;
        inGroups        1(wall);
        nFaces          200;
        startFace       5700;
    }
    block1_wall2
    {
        type            wall;
        inGroups        1(wall);
        nFaces          200;
        startFace       5900;
    }
    block1_wall3
    {
        type            wall;
        inGroups        1(wall);
        nFaces          200;
        startFace       6100;
    }
    block1_wall4
    {
        type            wall;
        inGroups        1(wall);
        nFaces          200;
        startFace       6300;
    }
)

// ************************************************************************* //
